                                  MODFLOW-2005     
      U.S. GEOLOGICAL SURVEY MODULAR FINITE-DIFFERENCE GROUND-WATER FLOW MODEL
                            VERSION 1.12.00 2/3/2017

 LIST FILE: Wildcat_main.list
                         UNIT    2

 OPENING Wildcat_main.dis
 FILE TYPE:DIS   UNIT   11   STATUS:OLD    
 FORMAT:FORMATTED              ACCESS:SEQUENTIAL          

 OPENING Wildcat_main.bas
 FILE TYPE:BAS6   UNIT   13   STATUS:OLD    
 FORMAT:FORMATTED              ACCESS:SEQUENTIAL          

 OPENING Wildcat_main.lpf
 FILE TYPE:LPF   UNIT   15   STATUS:OLD    
 FORMAT:FORMATTED              ACCESS:SEQUENTIAL          

 OPENING Wildcat_main.rch
 FILE TYPE:RCH   UNIT   19   STATUS:OLD    
 FORMAT:FORMATTED              ACCESS:SEQUENTIAL          

 OPENING Wildcat_main.wel
 FILE TYPE:WEL   UNIT   20   STATUS:OLD    
 FORMAT:FORMATTED              ACCESS:SEQUENTIAL          

 OPENING Wildcat_main.pcg
 FILE TYPE:PCG   UNIT   27   STATUS:OLD    
 FORMAT:FORMATTED              ACCESS:SEQUENTIAL          

 OPENING Wildcat_main.oc
 FILE TYPE:OC   UNIT   14   STATUS:OLD    
 FORMAT:FORMATTED              ACCESS:SEQUENTIAL          

 OPENING Wildcat_main.cbc
 FILE TYPE:DATA(BINARY)   UNIT   53   STATUS:REPLACE
 FORMAT:UNFORMATTED            ACCESS:STREAM              

 OPENING Wildcat_main.hds
 FILE TYPE:DATA(BINARY)   UNIT   51   STATUS:REPLACE
 FORMAT:UNFORMATTED            ACCESS:STREAM              

 BAS -- BASIC PACKAGE, VERSION 7, 5/2/2005 INPUT READ FROM UNIT   13
 
 MODFLOW was compiled using mixed precision
 Precision of REAL variables:           6
 Precision of DOUBLE PRECISION variables:          15

 DISCRETIZATION INPUT DATA READ FROM UNIT   11
 # DIS package for MODFLOW-2005 generated by Flopy 3.10.0
    1 LAYERS        80 ROWS        80 COLUMNS
    1 STRESS PERIOD(S) IN SIMULATION
 MODEL TIME UNIT IS DAYS
 MODEL LENGTH UNIT IS METERS
  Confining bed flag for each layer:
   0

                     DELR =   50.0000    

                     DELC =   50.0000    

 TOP ELEVATION OF LAYER 1 =   250.000    

   MODEL LAYER BOTTOM EL. =   0.00000     FOR LAYER   1


 STRESS PERIOD     LENGTH       TIME STEPS     MULTIPLIER FOR DELT    SS FLAG
 ----------------------------------------------------------------------------
        1         1.000000          1                    1.000         SS

 STEADY-STATE SIMULATION



 
 # BAS6 package for MODFLOW-2005 generated by Flopy 3.10.0                       
 THE FREE FORMAT OPTION HAS BEEN SELECTED



                     BOUNDARY ARRAY FOR LAYER   1
 READING ON UNIT   13 WITH FORMAT: (80I10)             

 AQUIFER HEAD WILL BE SET TO  -999.99     AT ALL NO-FLOW NODES (IBOUND=0).



                       INITIAL HEAD FOR LAYER   1
 READING ON UNIT   13 WITH FORMAT: (80E15.6)           
 # OC package for MODFLOW-2005 generated by Flopy 3.10.0

 OUTPUT CONTROL IS SPECIFIED ONLY AT TIME STEPS FOR WHICH OUTPUT IS DESIRED
 COMPACT CELL-BY-CELL BUDGET FILES WILL BE WRITTEN
 AUXILIARY DATA WILL BE SAVED IN CELL-BY-CELL BUDGET FILES
 HEAD PRINT FORMAT CODE IS   0    DRAWDOWN PRINT FORMAT CODE IS   0
 HEADS WILL BE SAVED ON UNIT   51    DRAWDOWNS WILL BE SAVED ON UNIT    0

 LPF -- LAYER-PROPERTY FLOW PACKAGE, VERSION 7, 5/2/2005
         INPUT READ FROM UNIT   15
 # LPF package for MODFLOW-2005 generated by Flopy 3.10.0
 CELL-BY-CELL FLOWS WILL BE SAVED ON UNIT   53
 HEAD AT CELLS THAT CONVERT TO DRY= -1.00000E+30
 No named parameters
 STORAGECOEFFICIENT OPTION:
 Read storage coefficient rather than specific storage

   LAYER FLAGS:
 LAYER       LAYTYP        LAYAVG         CHANI        LAYVKA        LAYWET
 ---------------------------------------------------------------------------
    1             1             0     1.000E+00             0             0

   INTERPRETATION OF LAYER FLAGS:
                        INTERBLOCK     HORIZONTAL    DATA IN
         LAYER TYPE   TRANSMISSIVITY   ANISOTROPY   ARRAY VKA   WETTABILITY
 LAYER      (LAYTYP)      (LAYAVG)       (CHANI)      (LAYVKA)      (LAYWET)
 ---------------------------------------------------------------------------
    1   CONVERTIBLE      HARMONIC     1.000E+00    VERTICAL K  NON-WETTABLE

 WETTING CAPABILITY IS NOT ACTIVE IN ANY LAYER



              HYD. COND. ALONG ROWS FOR LAYER   1
 READING ON UNIT   15 WITH FORMAT: (80E15.6)           

      VERTICAL HYD. COND. =   1.00000     FOR LAYER   1

 WEL -- WELL PACKAGE, VERSION 7, 5/2/2005 INPUT READ FROM UNIT   20
 # WEL package for MODFLOW-2005 generated by Flopy 3.10.0
 No named parameters
 MAXIMUM OF      1 ACTIVE WELLS AT ONE TIME


     0 Well parameters

 RCH -- RECHARGE PACKAGE, VERSION 7, 5/2/2005 INPUT READ FROM UNIT   19
 # RCH package for MODFLOW-2005 generated by Flopy 3.10.0
 No named parameters
 OPTION 3 -- RECHARGE TO HIGHEST ACTIVE NODE IN EACH VERTICAL COLUMN
 CELL-BY-CELL FLOWS WILL BE SAVED ON UNIT   53


     0 Recharge parameters

 PCG -- CONJUGATE-GRADIENT SOLUTION PACKAGE, VERSION 7, 5/2/2005
 # PCG package for MODFLOW-2005 generated by Flopy 3.10.0
 MAXIMUM OF     50 CALLS OF SOLUTION ROUTINE
 MAXIMUM OF     30 INTERNAL ITERATIONS PER CALL TO SOLUTION ROUTINE
 MATRIX PRECONDITIONING TYPE :    1



                                    SOLUTION BY THE CONJUGATE-GRADIENT METHOD
                                   -------------------------------------------
                    MAXIMUM NUMBER OF CALLS TO PCG ROUTINE =       50
                        MAXIMUM ITERATIONS PER CALL TO PCG =       30
                               MATRIX PRECONDITIONING TYPE =        1
        RELAXATION FACTOR (ONLY USED WITH PRECOND. TYPE 1) =    0.98000E+00
 PARAMETER OF POLYNOMIAL PRECOND. = 2 (2) OR IS CALCULATED :        0
                         HEAD CHANGE CRITERION FOR CLOSURE =    0.10000E-04
                     RESIDUAL CHANGE CRITERION FOR CLOSURE =    0.10000E-03
            PCG HEAD AND RESIDUAL CHANGE PRINTOUT INTERVAL =      999
     PRINTING FROM SOLVER IS LIMITED(1) OR SUPPRESSED (>1) =        3
                            STEADY-STATE DAMPING PARAMETER =    0.10000E+01
                               TRANSIENT DAMPING PARAMETER =    0.10000E+01
1
                            STRESS PERIOD NO.    1, LENGTH =   1.000000    
                            -----------------------------------------------

                              NUMBER OF TIME STEPS =     1

                               MULTIPLIER FOR DELT =     1.000

                            INITIAL TIME STEP SIZE =   1.000000    

 WELL NO.  LAYER   ROW   COL   STRESS RATE         
 --------------------------------------------------
      1      1     32     21      -348.1    

      1 WELL 



                           RECHARGE
 READING ON UNIT   19 WITH FORMAT: (80E15.6)           
 
 SOLVING FOR HEAD 

 OUTPUT CONTROL FOR STRESS PERIOD    1   TIME STEP    1
    PRINT HEAD FOR ALL LAYERS
    PRINT BUDGET
    SAVE HEAD FOR ALL LAYERS
    SAVE BUDGET
 UBDSV2 SAVING "   CONSTANT HEAD" ON UNIT  53 AT TIME STEP  1, STRESS PERIOD   1
 UBDSV1 SAVING "FLOW RIGHT FACE " ON UNIT  53 AT TIME STEP  1, STRESS PERIOD   1
 UBDSV1 SAVING "FLOW FRONT FACE " ON UNIT  53 AT TIME STEP  1, STRESS PERIOD   1
 UBDSV3 SAVING "        RECHARGE" ON UNIT  53 AT TIME STEP  1, STRESS PERIOD   1
1
              HEAD IN LAYER   1 AT END OF TIME STEP   1 IN STRESS PERIOD    1
  ---------------------------------------------------------------------------

            1           2           3           4           5           6           7           8           9          10
           11          12          13          14          15          16          17          18          19          20
           21          22          23          24          25          26          27          28          29          30
           31          32          33          34          35          36          37          38          39          40
           41          42          43          44          45          46          47          48          49          50
           51          52          53          54          55          56          57          58          59          60
           61          62          63          64          65          66          67          68          69          70
           71          72          73          74          75          76          77          78          79          80
 ........................................................................................................................
   1    258.0       257.3       256.5       255.8       255.0       254.2       253.5       252.7       251.9       251.1    
        250.3       249.5       248.7       247.9       247.1       246.3       245.5       244.7       243.9       243.0    
        242.2       241.4       240.5       239.7       238.8       238.0       237.1       236.2       235.4       234.5    
        233.6       232.8       231.9       231.0       230.1       229.2       228.3       227.4       226.5       225.6    
        224.7       223.7       222.8       221.9       220.9       220.0       219.1       218.1       217.2       216.2    
        215.2       214.3       213.3       212.3       211.3       210.3       209.3       208.3       207.3       206.3    
        205.3       204.3       203.2       202.2       201.2       200.1       199.1       198.0       197.0       195.9    
        194.8       193.7       192.7       191.6       190.5       189.4       188.3       187.2       186.1       185.0    
   2    258.0       257.3       256.5       255.8       255.0       254.2       253.5       252.7       251.9       251.1    
        250.3       249.5       248.7       247.9       247.1       246.3       245.5       244.7       243.9       243.0    
        242.2       241.4       240.5       239.7       238.8       238.0       237.1       236.2       235.4       234.5    
        233.6       232.8       231.9       231.0       230.1       229.2       228.3       227.4       226.5       225.6    
        224.7       223.7       222.8       221.9       220.9       220.0       219.1       218.1       217.2       216.2    
        215.2       214.3       213.3       212.3       211.3       210.3       209.3       208.3       207.3       206.3    
        205.3       204.3       203.2       202.2       201.2       200.1       199.1       198.0       197.0       195.9    
        194.8       193.7       192.7       191.6       190.5       189.4       188.3       187.2       186.1       185.0    
   3    258.1       257.3       256.6       255.8       255.0       254.2       253.5       252.7       251.9       251.1    
        250.3       249.5       248.7       247.9       247.1       246.3       245.5       244.7       243.9       243.0    
        242.2       241.4       240.5       239.7       238.8       238.0       237.1       236.2       235.4       234.5    
        233.6       232.8       231.9       231.0       230.1       229.2       228.3       227.4       226.5       225.6    
        224.7       223.7       222.8       221.9       220.9       220.0       219.1       218.1       217.2       216.2    
        215.2       214.3       213.3       212.3       211.3       210.3       209.3       208.3       207.3       206.3    
        205.3       204.3       203.2       202.2       201.2       200.1       199.1       198.0       197.0       195.9    
        194.8       193.7       192.7       191.6       190.5       189.4       188.3       187.2       186.1       184.9    
   4    258.1       257.3       256.6       255.8       255.0       254.3       253.5       252.7       251.9       251.1    
        250.3       249.5       248.7       247.9       247.1       246.3       245.5       244.7       243.9       243.0    
        242.2       241.4       240.5       239.7       238.8       238.0       237.1       236.2       235.4       234.5    
        233.6       232.8       231.9       231.0       230.1       229.2       228.3       227.4       226.5       225.6    
        224.7       223.7       222.8       221.9       220.9       220.0       219.1       218.1       217.2       216.2    
        215.2       214.3       213.3       212.3       211.3       210.3       209.3       208.3       207.3       206.3    
        205.3       204.3       203.2       202.2       201.2       200.1       199.1       198.0       196.9       195.9    
        194.8       193.7       192.6       191.6       190.5       189.4       188.3       187.1       186.0       184.9    
   5    258.1       257.4       256.6       255.8       255.0       254.3       253.5       252.7       251.9       251.1    
        250.3       249.5       248.7       247.9       247.1       246.3       245.5       244.7       243.9       243.0    
        242.2       241.4       240.5       239.7       238.8       238.0       237.1       236.2       235.4       234.5    
        233.6       232.8       231.9       231.0       230.1       229.2       228.3       227.4       226.5       225.6    
        224.7       223.7       222.8       221.9       220.9       220.0       219.1       218.1       217.1       216.2    
        215.2       214.3       213.3       212.3       211.3       210.3       209.3       208.3       207.3       206.3    
        205.3       204.3       203.2       202.2       201.2       200.1       199.1       198.0       196.9       195.9    
        194.8       193.7       192.6       191.5       190.4       189.3       188.2       187.1       186.0       184.9    
   6    258.2       257.4       256.6       255.8       255.1       254.3       253.5       252.7       251.9       251.1    
        250.3       249.5       248.7       247.9       247.1       246.3       245.5       244.7       243.9       243.0    
        242.2       241.4       240.5       239.7       238.8       238.0       237.1       236.2       235.4       234.5    
        233.6       232.8       231.9       231.0       230.1       229.2       228.3       227.4       226.5       225.6    
        224.7       223.7       222.8       221.9       220.9       220.0       219.1       218.1       217.1       216.2    
        215.2       214.3       213.3       212.3       211.3       210.3       209.3       208.3       207.3       206.3    
        205.3       204.3       203.2       202.2       201.2       200.1       199.1       198.0       196.9       195.9    
        194.8       193.7       192.6       191.5       190.4       189.3       188.2       187.1       186.0       184.8    
   7    258.2       257.4       256.6       255.9       255.1       254.3       253.5       252.7       251.9       251.1    
        250.4       249.6       248.8       247.9       247.1       246.3       245.5       244.7       243.9       243.0    
        242.2       241.4       240.5       239.7       238.8       238.0       237.1       236.2       235.4       234.5    
        233.6       232.8       231.9       231.0       230.1       229.2       228.3       227.4       226.5       225.6    
        224.7       223.7       222.8       221.9       220.9       220.0       219.0       218.1       217.1       216.2    
        215.2       214.2       213.3       212.3       211.3       210.3       209.3       208.3       207.3       206.3    
        205.3       204.3       203.2       202.2       201.1       200.1       199.0       198.0       196.9       195.9    
        194.8       193.7       192.6       191.5       190.4       189.3       188.2       187.1       185.9       184.8    
   8    258.2       257.5       256.7       255.9       255.1       254.3       253.5       252.7       252.0       251.2    
        250.4       249.6       248.8       248.0       247.1       246.3       245.5       244.7       243.9       243.0    
        242.2       241.4       240.5       239.7       238.8       238.0       237.1       236.2       235.4       234.5    
        233.6       232.8       231.9       231.0       230.1       229.2       228.3       227.4       226.5       225.6    
        224.7       223.7       222.8       221.9       220.9       220.0       219.0       218.1       217.1       216.2    
        215.2       214.2       213.3       212.3       211.3       210.3       209.3       208.3       207.3       206.3    
        205.3       204.2       203.2       202.2       201.1       200.1       199.0       198.0       196.9       195.8    
        194.8       193.7       192.6       191.5       190.4       189.3       188.2       187.1       185.9       184.8    
   9    258.3       257.5       256.7       255.9       255.1       254.3       253.6       252.8       252.0       251.2    
        250.4       249.6       248.8       248.0       247.2       246.3       245.5       244.7       243.9       243.0    
        242.2       241.4       240.5       239.7       238.8       238.0       237.1       236.2       235.4       234.5    
        233.6       232.7       231.9       231.0       230.1       229.2       228.3       227.4       226.5       225.6    
        224.6       223.7       222.8       221.9       220.9       220.0       219.0       218.1       217.1       216.2    
        215.2       214.2       213.3       212.3       211.3       210.3       209.3       208.3       207.3       206.3    
        205.3       204.2       203.2       202.2       201.1       200.1       199.0       198.0       196.9       195.8    
        194.8       193.7       192.6       191.5       190.4       189.3       188.2       187.0       185.9       184.8    
  10    258.3       257.5       256.7       255.9       255.2       254.4       253.6       252.8       252.0       251.2    
        250.4       249.6       248.8       248.0       247.2       246.3       245.5       244.7       243.9       243.0    
        242.2       241.4       240.5       239.7       238.8       238.0       237.1       236.2       235.4       234.5    
        233.6       232.7       231.9       231.0       230.1       229.2       228.3       227.4       226.5       225.6    
        224.6       223.7       222.8       221.9       220.9       220.0       219.0       218.1       217.1       216.2    
        215.2       214.2       213.3       212.3       211.3       210.3       209.3       208.3       207.3       206.3    
        205.3       204.2       203.2       202.2       201.1       200.1       199.0       198.0       196.9       195.8    
        194.7       193.7       192.6       191.5       190.4       189.2       188.1       187.0       185.9       184.7    
  11    258.3       257.5       256.8       256.0       255.2       254.4       253.6       252.8       252.0       251.2    
        250.4       249.6       248.8       248.0       247.2       246.3       245.5       244.7       243.9       243.0    
        242.2       241.4       240.5       239.7       238.8       238.0       237.1       236.2       235.4       234.5    
        233.6       232.7       231.9       231.0       230.1       229.2       228.3       227.4       226.5       225.6    
        224.6       223.7       222.8       221.9       220.9       220.0       219.0       218.1       217.1       216.2    
        215.2       214.2       213.3       212.3       211.3       210.3       209.3       208.3       207.3       206.3    
        205.3       204.2       203.2       202.2       201.1       200.1       199.0       197.9       196.9       195.8    
        194.7       193.6       192.5       191.4       190.3       189.2       188.1       187.0       185.8       184.7    
  12    258.4       257.6       256.8       256.0       255.2       254.4       253.6       252.8       252.0       251.2    
        250.4       249.6       248.8       248.0       247.2       246.4       245.5       244.7       243.9       243.0    
        242.2       241.4       240.5       239.7       238.8       238.0       237.1       236.2       235.4       234.5    
        233.6       232.7       231.9       231.0       230.1       229.2       228.3       227.4       226.5       225.6    
        224.6       223.7       222.8       221.9       220.9       220.0       219.0       218.1       217.1       216.2    
        215.2       214.2       213.2       212.3       211.3       210.3       209.3       208.3       207.3       206.3    
        205.2       204.2       203.2       202.1       201.1       200.1       199.0       197.9       196.9       195.8    
        194.7       193.6       192.5       191.4       190.3       189.2       188.1       186.9       185.8       184.7    
  13    258.4       257.6       256.8       256.0       255.2       254.4       253.6       252.8       252.0       251.2    
        250.4       249.6       248.8       248.0       247.2       246.4       245.5       244.7       243.9       243.0    
        242.2       241.4       240.5       239.7       238.8       238.0       237.1       236.2       235.4       234.5    
        233.6       232.7       231.9       231.0       230.1       229.2       228.3       227.4       226.5       225.6    
        224.6       223.7       222.8       221.9       220.9       220.0       219.0       218.1       217.1       216.2    
        215.2       214.2       213.2       212.3       211.3       210.3       209.3       208.3       207.3       206.3    
        205.2       204.2       203.2       202.1       201.1       200.0       199.0       197.9       196.9       195.8    
        194.7       193.6       192.5       191.4       190.3       189.2       188.1       186.9       185.8       184.6    
  14    258.4       257.6       256.8       256.0       255.2       254.4       253.6       252.8       252.0       251.2    
        250.4       249.6       248.8       248.0       247.2       246.4       245.5       244.7       243.9       243.0    
        242.2       241.4       240.5       239.7       238.8       238.0       237.1       236.2       235.4       234.5    
        233.6       232.7       231.9       231.0       230.1       229.2       228.3       227.4       226.5       225.5    
        224.6       223.7       222.8       221.8       220.9       220.0       219.0       218.1       217.1       216.2    
        215.2       214.2       213.2       212.3       211.3       210.3       209.3       208.3       207.3       206.2    
        205.2       204.2       203.2       202.1       201.1       200.0       199.0       197.9       196.8       195.8    
        194.7       193.6       192.5       191.4       190.3       189.2       188.0       186.9       185.7       184.6    
  15    258.5       257.7       256.9       256.1       255.3       254.5       253.7       252.9       252.1       251.3    
        250.4       249.6       248.8       248.0       247.2       246.4       245.5       244.7       243.9       243.0    
        242.2       241.4       240.5       239.7       238.8       238.0       237.1       236.2       235.4       234.5    
        233.6       232.7       231.8       231.0       230.1       229.2       228.3       227.4       226.5       225.5    
        224.6       223.7       222.8       221.8       220.9       220.0       219.0       218.1       217.1       216.1    
        215.2       214.2       213.2       212.2       211.3       210.3       209.3       208.3       207.3       206.2    
        205.2       204.2       203.2       202.1       201.1       200.0       199.0       197.9       196.8       195.7    
        194.7       193.6       192.5       191.4       190.2       189.1       188.0       186.9       185.7       184.6    
  16    258.5       257.7       256.9       256.1       255.3       254.5       253.7       252.9       252.1       251.3    
        250.5       249.6       248.8       248.0       247.2       246.4       245.5       244.7       243.9       243.0    
        242.2       241.4       240.5       239.7       238.8       237.9       237.1       236.2       235.4       234.5    
        233.6       232.7       231.8       231.0       230.1       229.2       228.3       227.4       226.5       225.5    
        224.6       223.7       222.8       221.8       220.9       220.0       219.0       218.1       217.1       216.1    
        215.2       214.2       213.2       212.2       211.3       210.3       209.3       208.3       207.2       206.2    
        205.2       204.2       203.1       202.1       201.1       200.0       198.9       197.9       196.8       195.7    
        194.6       193.5       192.4       191.3       190.2       189.1       188.0       186.8       185.7       184.5    
  17    258.5       257.7       256.9       256.1       255.3       254.5       253.7       252.9       252.1       251.3    
        250.5       249.7       248.8       248.0       247.2       246.4       245.5       244.7       243.9       243.0    
        242.2       241.4       240.5       239.7       238.8       237.9       237.1       236.2       235.4       234.5    
        233.6       232.7       231.8       231.0       230.1       229.2       228.3       227.4       226.4       225.5    
        224.6       223.7       222.8       221.8       220.9       220.0       219.0       218.1       217.1       216.1    
        215.2       214.2       213.2       212.2       211.2       210.3       209.3       208.2       207.2       206.2    
        205.2       204.2       203.1       202.1       201.0       200.0       198.9       197.9       196.8       195.7    
        194.6       193.5       192.4       191.3       190.2       189.1       187.9       186.8       185.7       184.5    
  18    258.6       257.8       257.0       256.2       255.3       254.5       253.7       252.9       252.1       251.3    
        250.5       249.7       248.9       248.0       247.2       246.4       245.6       244.7       243.9       243.0    
        242.2       241.4       240.5       239.7       238.8       237.9       237.1       236.2       235.3       234.5    
        233.6       232.7       231.8       230.9       230.1       229.2       228.3       227.4       226.4       225.5    
        224.6       223.7       222.8       221.8       220.9       219.9       219.0       218.0       217.1       216.1    
        215.2       214.2       213.2       212.2       211.2       210.2       209.2       208.2       207.2       206.2    
        205.2       204.2       203.1       202.1       201.0       200.0       198.9       197.8       196.8       195.7    
        194.6       193.5       192.4       191.3       190.2       189.1       187.9       186.8       185.6       184.5    
  19    258.6       257.8       257.0       256.2       255.4       254.6       253.8       252.9       252.1       251.3    
        250.5       249.7       248.9       248.0       247.2       246.4       245.6       244.7       243.9       243.0    
        242.2       241.3       240.5       239.6       238.8       237.9       237.1       236.2       235.3       234.5    
        233.6       232.7       231.8       230.9       230.0       229.2       228.3       227.3       226.4       225.5    
        224.6       223.7       222.8       221.8       220.9       219.9       219.0       218.0       217.1       216.1    
        215.2       214.2       213.2       212.2       211.2       210.2       209.2       208.2       207.2       206.2    
        205.2       204.1       203.1       202.1       201.0       200.0       198.9       197.8       196.8       195.7    
        194.6       193.5       192.4       191.3       190.2       189.0       187.9       186.7       185.6       184.4    
  20    258.6       257.8       257.0       256.2       255.4       254.6       253.8       253.0       252.1       251.3    
        250.5       249.7       248.9       248.0       247.2       246.4       245.6       244.7       243.9       243.0    
        242.2       241.3       240.5       239.6       238.8       237.9       237.1       236.2       235.3       234.5    
        233.6       232.7       231.8       230.9       230.0       229.1       228.2       227.3       226.4       225.5    
        224.6       223.7       222.7       221.8       220.9       219.9       219.0       218.0       217.1       216.1    
        215.1       214.2       213.2       212.2       211.2       210.2       209.2       208.2       207.2       206.2    
        205.2       204.1       203.1       202.0       201.0       199.9       198.9       197.8       196.7       195.7    
        194.6       193.5       192.4       191.2       190.1       189.0       187.9       186.7       185.6       184.4    
  21    258.7       257.9       257.0       256.2       255.4       254.6       253.8       253.0       252.2       251.3    
        250.5       249.7       248.9       248.1       247.2       246.4       245.6       244.7       243.9       243.0    
        242.2       241.3       240.5       239.6       238.8       237.9       237.1       236.2       235.3       234.5    
        233.6       232.7       231.8       230.9       230.0       229.1       228.2       227.3       226.4       225.5    
        224.6       223.7       222.7       221.8       220.9       219.9       219.0       218.0       217.1       216.1    
        215.1       214.2       213.2       212.2       211.2       210.2       209.2       208.2       207.2       206.2    
        205.1       204.1       203.1       202.0       201.0       199.9       198.9       197.8       196.7       195.6    
        194.5       193.4       192.3       191.2       190.1       189.0       187.8       186.7       185.5       184.4    
  22    258.7       257.9       257.1       256.3       255.4       254.6       253.8       253.0       252.2       251.4    
        250.5       249.7       248.9       248.1       247.2       246.4       245.6       244.7       243.9       243.0    
        242.2       241.3       240.5       239.6       238.8       237.9       237.1       236.2       235.3       234.4    
        233.6       232.7       231.8       230.9       230.0       229.1       228.2       227.3       226.4       225.5    
        224.6       223.7       222.7       221.8       220.9       219.9       219.0       218.0       217.1       216.1    
        215.1       214.2       213.2       212.2       211.2       210.2       209.2       208.2       207.2       206.2    
        205.1       204.1       203.1       202.0       201.0       199.9       198.8       197.8       196.7       195.6    
        194.5       193.4       192.3       191.2       190.1       188.9       187.8       186.7       185.5       184.3    
  23    258.7       257.9       257.1       256.3       255.5       254.7       253.8       253.0       252.2       251.4    
        250.6       249.7       248.9       248.1       247.2       246.4       245.6       244.7       243.9       243.0    
        242.2       241.3       240.5       239.6       238.8       237.9       237.0       236.2       235.3       234.4    
        233.6       232.7       231.8       230.9       230.0       229.1       228.2       227.3       226.4       225.5    
        224.6       223.7       222.7       221.8       220.9       219.9       219.0       218.0       217.1       216.1    
        215.1       214.1       213.2       212.2       211.2       210.2       209.2       208.2       207.2       206.2    
        205.1       204.1       203.1       202.0       201.0       199.9       198.8       197.8       196.7       195.6    
        194.5       193.4       192.3       191.2       190.1       188.9       187.8       186.6       185.5       184.3    
  24    258.8       258.0       257.1       256.3       255.5       254.7       253.9       253.0       252.2       251.4    
        250.6       249.7       248.9       248.1       247.2       246.4       245.5       244.7       243.9       243.0    
        242.2       241.3       240.5       239.6       238.7       237.9       237.0       236.2       235.3       234.4    
        233.6       232.7       231.8       230.9       230.0       229.1       228.2       227.3       226.4       225.5    
        224.6       223.6       222.7       221.8       220.8       219.9       219.0       218.0       217.0       216.1    
        215.1       214.1       213.2       212.2       211.2       210.2       209.2       208.2       207.2       206.1    
        205.1       204.1       203.0       202.0       200.9       199.9       198.8       197.7       196.7       195.6    
        194.5       193.4       192.3       191.2       190.0       188.9       187.8       186.6       185.5       184.3    
  25    258.8       258.0       257.2       256.3       255.5       254.7       253.9       253.1       252.2       251.4    
        250.6       249.7       248.9       248.1       247.2       246.4       245.5       244.7       243.8       243.0    
        242.1       241.3       240.4       239.6       238.7       237.9       237.0       236.2       235.3       234.4    
        233.6       232.7       231.8       230.9       230.0       229.1       228.2       227.3       226.4       225.5    
        224.6       223.6       222.7       221.8       220.8       219.9       218.9       218.0       217.0       216.1    
        215.1       214.1       213.2       212.2       211.2       210.2       209.2       208.2       207.1       206.1    
        205.1       204.1       203.0       202.0       200.9       199.9       198.8       197.7       196.6       195.6    
        194.5       193.4       192.2       191.1       190.0       188.9       187.7       186.6       185.4       184.3    
  26    258.8       258.0       257.2       256.4       255.6       254.7       253.9       253.1       252.3       251.4    
        250.6       249.8       248.9       248.1       247.2       246.4       245.5       244.7       243.8       243.0    
        242.1       241.3       240.4       239.6       238.7       237.9       237.0       236.2       235.3       234.4    
        233.5       232.7       231.8       230.9       230.0       229.1       228.2       227.3       226.4       225.5    
        224.6       223.6       222.7       221.8       220.8       219.9       218.9       218.0       217.0       216.1    
        215.1       214.1       213.1       212.2       211.2       210.2       209.2       208.2       207.1       206.1    
        205.1       204.1       203.0       202.0       200.9       199.8       198.8       197.7       196.6       195.5    
        194.4       193.3       192.2       191.1       190.0       188.8       187.7       186.5       185.4       184.2    
  27    258.9       258.0       257.2       256.4       255.6       254.8       253.9       253.1       252.3       251.4    
        250.6       249.8       248.9       248.1       247.2       246.4       245.5       244.7       243.8       242.9    
        242.1       241.2       240.4       239.5       238.7       237.9       237.0       236.1       235.3       234.4    
        233.5       232.7       231.8       230.9       230.0       229.1       228.2       227.3       226.4       225.5    
        224.6       223.6       222.7       221.8       220.8       219.9       218.9       218.0       217.0       216.1    
        215.1       214.1       213.1       212.1       211.2       210.2       209.2       208.1       207.1       206.1    
        205.1       204.0       203.0       201.9       200.9       199.8       198.8       197.7       196.6       195.5    
        194.4       193.3       192.2       191.1       190.0       188.8       187.7       186.5       185.4       184.2    
  28    258.9       258.1       257.3       256.4       255.6       254.8       254.0       253.1       252.3       251.5    
        250.6       249.8       248.9       248.1       247.2       246.4       245.5       244.6       243.8       242.9    
        242.0       241.2       240.4       239.5       238.7       237.8       237.0       236.1       235.3       234.4    
        233.5       232.7       231.8       230.9       230.0       229.1       228.2       227.3       226.4       225.5    
        224.5       223.6       222.7       221.8       220.8       219.9       218.9       218.0       217.0       216.0    
        215.1       214.1       213.1       212.1       211.1       210.1       209.1       208.1       207.1       206.1    
        205.1       204.0       203.0       201.9       200.9       199.8       198.7       197.7       196.6       195.5    
        194.4       193.3       192.2       191.1       189.9       188.8       187.6       186.5       185.3       184.2    
  29    258.9       258.1       257.3       256.5       255.6       254.8       254.0       253.1       252.3       251.5    
        250.6       249.8       249.0       248.1       247.2       246.4       245.5       244.6       243.7       242.9    
        242.0       241.1       240.3       239.5       238.7       237.8       237.0       236.1       235.3       234.4    
        233.5       232.7       231.8       230.9       230.0       229.1       228.2       227.3       226.4       225.5    
        224.5       223.6       222.7       221.8       220.8       219.9       218.9       218.0       217.0       216.0    
        215.1       214.1       213.1       212.1       211.1       210.1       209.1       208.1       207.1       206.1    
        205.0       204.0       203.0       201.9       200.9       199.8       198.7       197.6       196.6       195.5    
        194.4       193.3       192.2       191.0       189.9       188.8       187.6       186.5       185.3       184.1    
  30    259.0       258.1       257.3       256.5       255.7       254.8       254.0       253.2       252.3       251.5    
        250.7       249.8       249.0       248.1       247.2       246.4       245.5       244.6       243.7       242.8    
        241.9       241.1       240.3       239.5       238.6       237.8       237.0       236.1       235.3       234.4    
        233.5       232.7       231.8       230.9       230.0       229.1       228.2       227.3       226.4       225.5    
        224.5       223.6       222.7       221.7       220.8       219.9       218.9       218.0       217.0       216.0    
        215.1       214.1       213.1       212.1       211.1       210.1       209.1       208.1       207.1       206.1    
        205.0       204.0       203.0       201.9       200.8       199.8       198.7       197.6       196.5       195.5    
        194.4       193.2       192.1       191.0       189.9       188.7       187.6       186.4       185.3       184.1    
  31    259.0       258.2       257.4       256.5       255.7       254.9       254.0       253.2       252.4       251.5    
        250.7       249.8       249.0       248.1       247.3       246.4       245.5       244.6       243.7       242.7    
        241.8       241.0       240.2       239.4       238.6       237.8       237.0       236.1       235.3       234.4    
        233.5       232.7       231.8       230.9       230.0       229.1       228.2       227.3       226.4       225.5    
        224.5       223.6       222.7       221.7       220.8       219.9       218.9       218.0       217.0       216.0    
        215.1       214.1       213.1       212.1       211.1       210.1       209.1       208.1       207.1       206.1    
        205.0       204.0       202.9       201.9       200.8       199.8       198.7       197.6       196.5       195.4    
        194.3       193.2       192.1       191.0       189.9       188.7       187.6       186.4       185.2       184.1    
  32    259.0       258.2       257.4       256.6       255.7       254.9       254.1       253.2       252.4       251.5    
        250.7       249.9       249.0       248.1       247.3       246.4       245.5       244.6       243.6       242.6    
        241.4       240.9       240.2       239.4       238.6       237.8       237.0       236.1       235.3       234.4    
        233.5       232.7       231.8       230.9       230.0       229.1       228.2       227.3       226.4       225.5    
        224.5       223.6       222.7       221.7       220.8       219.9       218.9       217.9       217.0       216.0    
        215.1       214.1       213.1       212.1       211.1       210.1       209.1       208.1       207.1       206.0    
        205.0       204.0       202.9       201.9       200.8       199.7       198.7       197.6       196.5       195.4    
        194.3       193.2       192.1       191.0       189.8       188.7       187.5       186.4       185.2       184.0    
  33    259.1       258.2       257.4       256.6       255.8       254.9       254.1       253.2       252.4       251.6    
        250.7       249.9       249.0       248.2       247.3       246.4       245.5       244.6       243.7       242.7    
        241.8       241.0       240.3       239.5       238.7       237.8       237.0       236.1       235.3       234.4    
        233.6       232.7       231.8       230.9       230.0       229.1       228.2       227.3       226.4       225.5    
        224.5       223.6       222.7       221.7       220.8       219.9       218.9       217.9       217.0       216.0    
        215.0       214.1       213.1       212.1       211.1       210.1       209.1       208.1       207.1       206.0    
        205.0       204.0       202.9       201.9       200.8       199.7       198.7       197.6       196.5       195.4    
        194.3       193.2       192.1       190.9       189.8       188.7       187.5       186.3       185.2       184.0    
  34    259.1       258.3       257.4       256.6       255.8       254.9       254.1       253.3       252.4       251.6    
        250.8       249.9       249.1       248.2       247.3       246.5       245.6       244.7       243.8       242.9    
        242.0       241.1       240.3       239.5       238.7       237.9       237.0       236.2       235.3       234.4    
        233.6       232.7       231.8       230.9       230.0       229.1       228.2       227.3       226.4       225.5    
        224.5       223.6       222.7       221.7       220.8       219.8       218.9       217.9       217.0       216.0    
        215.0       214.1       213.1       212.1       211.1       210.1       209.1       208.1       207.0       206.0    
        205.0       203.9       202.9       201.8       200.8       199.7       198.6       197.6       196.5       195.4    
        194.3       193.2       192.0       190.9       189.8       188.6       187.5       186.3       185.2       184.0    
  35    259.1       258.3       257.5       256.6       255.8       255.0       254.1       253.3       252.5       251.6    
        250.8       249.9       249.1       248.2       247.4       246.5       245.6       244.7       243.8       243.0    
        242.1       241.2       240.4       239.6       238.7       237.9       237.0       236.2       235.3       234.4    
        233.6       232.7       231.8       230.9       230.0       229.1       228.2       227.3       226.4       225.5    
        224.5       223.6       222.7       221.7       220.8       219.8       218.9       217.9       217.0       216.0    
        215.0       214.1       213.1       212.1       211.1       210.1       209.1       208.1       207.0       206.0    
        205.0       203.9       202.9       201.8       200.8       199.7       198.6       197.5       196.4       195.4    
        194.2       193.1       192.0       190.9       189.7       188.6       187.5       186.3       185.1       183.9    
  36    259.2       258.3       257.5       256.7       255.8       255.0       254.2       253.3       252.5       251.7    
        250.8       250.0       249.1       248.3       247.4       246.5       245.7       244.8       243.9       243.0    
        242.2       241.3       240.5       239.6       238.8       237.9       237.1       236.2       235.3       234.5    
        233.6       232.7       231.8       230.9       230.0       229.1       228.2       227.3       226.4       225.5    
        224.5       223.6       222.7       221.7       220.8       219.8       218.9       217.9       217.0       216.0    
        215.0       214.1       213.1       212.1       211.1       210.1       209.1       208.0       207.0       206.0    
        205.0       203.9       202.9       201.8       200.8       199.7       198.6       197.5       196.4       195.3    
        194.2       193.1       192.0       190.9       189.7       188.6       187.4       186.3       185.1       183.9    
  37    259.2       258.4       257.5       256.7       255.9       255.0       254.2       253.4       252.5       251.7    
        250.8       250.0       249.1       248.3       247.4       246.6       245.7       244.8       244.0       243.1    
        242.2       241.4       240.5       239.7       238.8       238.0       237.1       236.2       235.4       234.5    
        233.6       232.7       231.8       230.9       230.0       229.1       228.2       227.3       226.4       225.5    
        224.5       223.6       222.7       221.7       220.8       219.8       218.9       217.9       217.0       216.0    
        215.0       214.0       213.1       212.1       211.1       210.1       209.1       208.0       207.0       206.0    
        204.9       203.9       202.9       201.8       200.7       199.7       198.6       197.5       196.4       195.3    
        194.2       193.1       192.0       190.8       189.7       188.6       187.4       186.2       185.1       183.9    
  38    259.2       258.4       257.6       256.7       255.9       255.1       254.2       253.4       252.6       251.7    
        250.9       250.0       249.2       248.3       247.5       246.6       245.8       244.9       244.0       243.2    
        242.3       241.4       240.6       239.7       238.9       238.0       237.1       236.3       235.4       234.5    
        233.6       232.7       231.8       230.9       230.0       229.1       228.2       227.3       226.4       225.5    
        224.5       223.6       222.7       221.7       220.8       219.8       218.9       217.9       217.0       216.0    
        215.0       214.0       213.1       212.1       211.1       210.1       209.0       208.0       207.0       206.0    
        204.9       203.9       202.8       201.8       200.7       199.6       198.6       197.5       196.4       195.3    
        194.2       193.1       191.9       190.8       189.7       188.5       187.4       186.2       185.0       183.8    
  39    259.3       258.4       257.6       256.8       255.9       255.1       254.3       253.4       252.6       251.7    
        250.9       250.1       249.2       248.4       247.5       246.7       245.8       244.9       244.1       243.2    
        242.3       241.5       240.6       239.8       238.9       238.0       237.2       236.3       235.4       234.5    
        233.6       232.8       231.9       231.0       230.1       229.1       228.2       227.3       226.4       225.5    
        224.6       223.6       222.7       221.7       220.8       219.8       218.9       217.9       217.0       216.0    
        215.0       214.0       213.0       212.1       211.1       210.0       209.0       208.0       207.0       206.0    
        204.9       203.9       202.8       201.8       200.7       199.6       198.6       197.5       196.4       195.3    
        194.2       193.0       191.9       190.8       189.6       188.5       187.3       186.2       185.0       183.8    
  40    259.3       258.5       257.6       256.8       256.0       255.1       254.3       253.5       252.6       251.8    
        250.9       250.1       249.3       248.4       247.6       246.7       245.8       245.0       244.1       243.3    
        242.4       241.5       240.7       239.8       238.9       238.1       237.2       236.3       235.4       234.5    
        233.7       232.8       231.9       231.0       230.1       229.2       228.2       227.3       226.4       225.5    
        224.6       223.6       222.7       221.7       220.8       219.8       218.9       217.9       217.0       216.0    
        215.0       214.0       213.0       212.0       211.0       210.0       209.0       208.0       207.0       206.0    
        204.9       203.9       202.8       201.8       200.7       199.6       198.5       197.4       196.4       195.3    
        194.1       193.0       191.9       190.8       189.6       188.5       187.3       186.1       185.0       183.8    
  41    259.3       258.5       257.7       256.8       256.0       255.2       254.3       253.5       252.7       251.8    
        251.0       250.1       249.3       248.4       247.6       246.7       245.9       245.0       244.2       243.3    
        242.4       241.6       240.7       239.8       239.0       238.1       237.2       236.3       235.5       234.6    
        233.7       232.8       231.9       231.0       230.1       229.2       228.3       227.3       226.4       225.5    
        224.6       223.6       222.7       221.7       220.8       219.8       218.9       217.9       217.0       216.0    
        215.0       214.0       213.0       212.0       211.0       210.0       209.0       208.0       207.0       205.9    
        204.9       203.9       202.8       201.7       200.7       199.6       198.5       197.4       196.3       195.2    
        194.1       193.0       191.9       190.7       189.6       188.4       187.3       186.1       184.9       183.8    
  42    259.4       258.5       257.7       256.9       256.0       255.2       254.4       253.5       252.7       251.8    
        251.0       250.2       249.3       248.5       247.6       246.8       245.9       245.1       244.2       243.3    
        242.5       241.6       240.7       239.9       239.0       238.1       237.2       236.4       235.5       234.6    
        233.7       232.8       231.9       231.0       230.1       229.2       228.3       227.3       226.4       225.5    
        224.6       223.6       222.7       221.7       220.8       219.8       218.9       217.9       217.0       216.0    
        215.0       214.0       213.0       212.0       211.0       210.0       209.0       208.0       207.0       205.9    
        204.9       203.8       202.8       201.7       200.7       199.6       198.5       197.4       196.3       195.2    
        194.1       193.0       191.9       190.7       189.6       188.4       187.3       186.1       184.9       183.7    
  43    259.4       258.6       257.7       256.9       256.1       255.2       254.4       253.6       252.7       251.9    
        251.0       250.2       249.4       248.5       247.7       246.8       246.0       245.1       244.2       243.4    
        242.5       241.6       240.8       239.9       239.0       238.2       237.3       236.4       235.5       234.6    
        233.7       232.8       231.9       231.0       230.1       229.2       228.3       227.4       226.4       225.5    
        224.6       223.6       222.7       221.7       220.8       219.8       218.9       217.9       217.0       216.0    
        215.0       214.0       213.0       212.0       211.0       210.0       209.0       208.0       207.0       205.9    
        204.9       203.8       202.8       201.7       200.6       199.6       198.5       197.4       196.3       195.2    
        194.1       193.0       191.8       190.7       189.5       188.4       187.2       186.1       184.9       183.7    
  44    259.4       258.6       257.8       256.9       256.1       255.3       254.4       253.6       252.8       251.9    
        251.1       250.2       249.4       248.5       247.7       246.8       246.0       245.1       244.3       243.4    
        242.5       241.7       240.8       239.9       239.1       238.2       237.3       236.4       235.5       234.6    
        233.7       232.8       231.9       231.0       230.1       229.2       228.3       227.4       226.4       225.5    
        224.6       223.6       222.7       221.8       220.8       219.8       218.9       217.9       217.0       216.0    
        215.0       214.0       213.0       212.0       211.0       210.0       209.0       208.0       206.9       205.9    
        204.9       203.8       202.8       201.7       200.6       199.6       198.5       197.4       196.3       195.2    
        194.1       192.9       191.8       190.7       189.5       188.4       187.2       186.0       184.9       183.7    
  45    259.5       258.6       257.8       257.0       256.1       255.3       254.5       253.6       252.8       251.9    
        251.1       250.3       249.4       248.6       247.7       246.9       246.0       245.2       244.3       243.4    
        242.6       241.7       240.8       240.0       239.1       238.2       237.3       236.4       235.5       234.7    
        233.8       232.9       232.0       231.0       230.1       229.2       228.3       227.4       226.5       225.5    
        224.6       223.6       222.7       221.8       220.8       219.8       218.9       217.9       217.0       216.0    
        215.0       214.0       213.0       212.0       211.0       210.0       209.0       208.0       206.9       205.9    
        204.9       203.8       202.7       201.7       200.6       199.5       198.5       197.4       196.3       195.2    
        194.0       192.9       191.8       190.6       189.5       188.3       187.2       186.0       184.8       183.6    
  46    259.5       258.7       257.8       257.0       256.2       255.3       254.5       253.7       252.8       252.0    
        251.1       250.3       249.5       248.6       247.8       246.9       246.1       245.2       244.3       243.5    
        242.6       241.7       240.9       240.0       239.1       238.2       237.4       236.5       235.6       234.7    
        233.8       232.9       232.0       231.1       230.1       229.2       228.3       227.4       226.5       225.5    
        224.6       223.7       222.7       221.8       220.8       219.9       218.9       217.9       217.0       216.0    
        215.0       214.0       213.0       212.0       211.0       210.0       209.0       208.0       206.9       205.9    
        204.8       203.8       202.7       201.7       200.6       199.5       198.4       197.3       196.2       195.1    
        194.0       192.9       191.8       190.6       189.5       188.3       187.1       186.0       184.8       183.6    
  47    259.5       258.7       257.9       257.0       256.2       255.4       254.5       253.7       252.8       252.0    
        251.2       250.3       249.5       248.6       247.8       246.9       246.1       245.2       244.4       243.5    
        242.6       241.8       240.9       240.0       239.1       238.3       237.4       236.5       235.6       234.7    
        233.8       232.9       232.0       231.1       230.2       229.2       228.3       227.4       226.5       225.5    
        224.6       223.7       222.7       221.8       220.8       219.9       218.9       217.9       217.0       216.0    
        215.0       214.0       213.0       212.0       211.0       210.0       209.0       207.9       206.9       205.9    
        204.8       203.8       202.7       201.7       200.6       199.5       198.4       197.3       196.2       195.1    
        194.0       192.9       191.7       190.6       189.4       188.3       187.1       185.9       184.8       183.6    
  48    259.6       258.7       257.9       257.1       256.2       255.4       254.6       253.7       252.9       252.0    
        251.2       250.4       249.5       248.7       247.8       247.0       246.1       245.3       244.4       243.5    
        242.7       241.8       240.9       240.0       239.2       238.3       237.4       236.5       235.6       234.7    
        233.8       232.9       232.0       231.1       230.2       229.3       228.3       227.4       226.5       225.5    
        224.6       223.7       222.7       221.8       220.8       219.9       218.9       217.9       217.0       216.0    
        215.0       214.0       213.0       212.0       211.0       210.0       209.0       207.9       206.9       205.9    
        204.8       203.8       202.7       201.6       200.6       199.5       198.4       197.3       196.2       195.1    
        194.0       192.8       191.7       190.6       189.4       188.3       187.1       185.9       184.7       183.5    
  49    259.6       258.8       257.9       257.1       256.3       255.4       254.6       253.8       252.9       252.1    
        251.2       250.4       249.5       248.7       247.9       247.0       246.1       245.3       244.4       243.6    
        242.7       241.8       241.0       240.1       239.2       238.3       237.4       236.5       235.6       234.7    
        233.8       232.9       232.0       231.1       230.2       229.3       228.3       227.4       226.5       225.6    
        224.6       223.7       222.7       221.8       220.8       219.9       218.9       217.9       217.0       216.0    
        215.0       214.0       213.0       212.0       211.0       210.0       209.0       207.9       206.9       205.9    
        204.8       203.8       202.7       201.6       200.6       199.5       198.4       197.3       196.2       195.1    
        194.0       192.8       191.7       190.5       189.4       188.2       187.1       185.9       184.7       183.5    
  50    259.6       258.8       258.0       257.1       256.3       255.5       254.6       253.8       252.9       252.1    
        251.3       250.4       249.6       248.7       247.9       247.0       246.2       245.3       244.5       243.6    
        242.7       241.9       241.0       240.1       239.2       238.3       237.4       236.6       235.7       234.8    
        233.9       232.9       232.0       231.1       230.2       229.3       228.4       227.4       226.5       225.6    
        224.6       223.7       222.7       221.8       220.8       219.9       218.9       217.9       217.0       216.0    
        215.0       214.0       213.0       212.0       211.0       210.0       209.0       207.9       206.9       205.9    
        204.8       203.7       202.7       201.6       200.5       199.5       198.4       197.3       196.2       195.1    
        193.9       192.8       191.7       190.5       189.4       188.2       187.0       185.9       184.7       183.5    
  51    259.7       258.8       258.0       257.2       256.3       255.5       254.7       253.8       253.0       252.1    
        251.3       250.4       249.6       248.8       247.9       247.1       246.2       245.3       244.5       243.6    
        242.7       241.9       241.0       240.1       239.2       238.4       237.5       236.6       235.7       234.8    
        233.9       233.0       232.1       231.1       230.2       229.3       228.4       227.4       226.5       225.6    
        224.6       223.7       222.7       221.8       220.8       219.9       218.9       217.9       217.0       216.0    
        215.0       214.0       213.0       212.0       211.0       210.0       208.9       207.9       206.9       205.8    
        204.8       203.7       202.7       201.6       200.5       199.4       198.4       197.3       196.1       195.0    
        193.9       192.8       191.6       190.5       189.3       188.2       187.0       185.8       184.6       183.4    
  52    259.7       258.9       258.0       257.2       256.4       255.5       254.7       253.8       253.0       252.2    
        251.3       250.5       249.6       248.8       247.9       247.1       246.2       245.4       244.5       243.6    
        242.8       241.9       241.0       240.1       239.3       238.4       237.5       236.6       235.7       234.8    
        233.9       233.0       232.1       231.2       230.2       229.3       228.4       227.5       226.5       225.6    
        224.6       223.7       222.7       221.8       220.8       219.9       218.9       217.9       217.0       216.0    
        215.0       214.0       213.0       212.0       211.0       210.0       208.9       207.9       206.9       205.8    
        204.8       203.7       202.7       201.6       200.5       199.4       198.3       197.2       196.1       195.0    
        193.9       192.8       191.6       190.5       189.3       188.2       187.0       185.8       184.6       183.4    
  53    259.7       258.9       258.1       257.2       256.4       255.6       254.7       253.9       253.0       252.2    
        251.3       250.5       249.7       248.8       248.0       247.1       246.3       245.4       244.5       243.7    
        242.8       241.9       241.0       240.2       239.3       238.4       237.5       236.6       235.7       234.8    
        233.9       233.0       232.1       231.2       230.2       229.3       228.4       227.5       226.5       225.6    
        224.6       223.7       222.8       221.8       220.8       219.9       218.9       217.9       217.0       216.0    
        215.0       214.0       213.0       212.0       211.0       210.0       208.9       207.9       206.9       205.8    
        204.8       203.7       202.7       201.6       200.5       199.4       198.3       197.2       196.1       195.0    
        193.9       192.7       191.6       190.5       189.3       188.1       187.0       185.8       184.6       183.4    
  54    259.8       258.9       258.1       257.3       256.4       255.6       254.7       253.9       253.1       252.2    
        251.4       250.5       249.7       248.8       248.0       247.1       246.3       245.4       244.6       243.7    
        242.8       241.9       241.1       240.2       239.3       238.4       237.5       236.6       235.7       234.8    
        233.9       233.0       232.1       231.2       230.3       229.3       228.4       227.5       226.5       225.6    
        224.7       223.7       222.8       221.8       220.8       219.9       218.9       217.9       217.0       216.0    
        215.0       214.0       213.0       212.0       211.0       210.0       208.9       207.9       206.9       205.8    
        204.8       203.7       202.6       201.6       200.5       199.4       198.3       197.2       196.1       195.0    
        193.9       192.7       191.6       190.4       189.3       188.1       186.9       185.7       184.6       183.3    
  55    259.8       259.0       258.1       257.3       256.5       255.6       254.8       253.9       253.1       252.2    
        251.4       250.6       249.7       248.9       248.0       247.2       246.3       245.4       244.6       243.7    
        242.8       242.0       241.1       240.2       239.3       238.4       237.5       236.6       235.7       234.8    
        233.9       233.0       232.1       231.2       230.3       229.3       228.4       227.5       226.6       225.6    
        224.7       223.7       222.8       221.8       220.8       219.9       218.9       217.9       217.0       216.0    
        215.0       214.0       213.0       212.0       211.0       210.0       208.9       207.9       206.9       205.8    
        204.8       203.7       202.6       201.6       200.5       199.4       198.3       197.2       196.1       195.0    
        193.8       192.7       191.6       190.4       189.2       188.1       186.9       185.7       184.5       183.3    
  56    259.8       259.0       258.2       257.3       256.5       255.6       254.8       254.0       253.1       252.3    
        251.4       250.6       249.7       248.9       248.0       247.2       246.3       245.5       244.6       243.7    
        242.9       242.0       241.1       240.2       239.3       238.5       237.6       236.7       235.8       234.9    
        234.0       233.0       232.1       231.2       230.3       229.4       228.4       227.5       226.6       225.6    
        224.7       223.7       222.8       221.8       220.9       219.9       218.9       217.9       217.0       216.0    
        215.0       214.0       213.0       212.0       211.0       209.9       208.9       207.9       206.8       205.8    
        204.7       203.7       202.6       201.5       200.5       199.4       198.3       197.2       196.1       194.9    
        193.8       192.7       191.5       190.4       189.2       188.1       186.9       185.7       184.5       183.3    
  57    259.9       259.0       258.2       257.4       256.5       255.7       254.8       254.0       253.1       252.3    
        251.5       250.6       249.8       248.9       248.1       247.2       246.4       245.5       244.6       243.8    
        242.9       242.0       241.1       240.3       239.4       238.5       237.6       236.7       235.8       234.9    
        234.0       233.1       232.1       231.2       230.3       229.4       228.4       227.5       226.6       225.6    
        224.7       223.7       222.8       221.8       220.9       219.9       218.9       217.9       217.0       216.0    
        215.0       214.0       213.0       212.0       211.0       209.9       208.9       207.9       206.8       205.8    
        204.7       203.7       202.6       201.5       200.5       199.4       198.3       197.2       196.0       194.9    
        193.8       192.7       191.5       190.4       189.2       188.0       186.8       185.7       184.5       183.3    
  58    259.9       259.1       258.2       257.4       256.5       255.7       254.9       254.0       253.2       252.3    
        251.5       250.6       249.8       248.9       248.1       247.2       246.4       245.5       244.7       243.8    
        242.9       242.0       241.2       240.3       239.4       238.5       237.6       236.7       235.8       234.9    
        234.0       233.1       232.2       231.2       230.3       229.4       228.5       227.5       226.6       225.6    
        224.7       223.7       222.8       221.8       220.9       219.9       218.9       218.0       217.0       216.0    
        215.0       214.0       213.0       212.0       211.0       209.9       208.9       207.9       206.8       205.8    
        204.7       203.7       202.6       201.5       200.4       199.3       198.2       197.1       196.0       194.9    
        193.8       192.6       191.5       190.3       189.2       188.0       186.8       185.6       184.4       183.2    
  59    259.9       259.1       258.3       257.4       256.6       255.7       254.9       254.0       253.2       252.4    
        251.5       250.7       249.8       249.0       248.1       247.3       246.4       245.5       244.7       243.8    
        242.9       242.1       241.2       240.3       239.4       238.5       237.6       236.7       235.8       234.9    
        234.0       233.1       232.2       231.2       230.3       229.4       228.5       227.5       226.6       225.6    
        224.7       223.8       222.8       221.8       220.9       219.9       218.9       218.0       217.0       216.0    
        215.0       214.0       213.0       212.0       211.0       209.9       208.9       207.9       206.8       205.8    
        204.7       203.7       202.6       201.5       200.4       199.3       198.2       197.1       196.0       194.9    
        193.8       192.6       191.5       190.3       189.1       188.0       186.8       185.6       184.4       183.2    
  60    260.0       259.1       258.3       257.5       256.6       255.8       254.9       254.1       253.2       252.4    
        251.5       250.7       249.8       249.0       248.1       247.3       246.4       245.6       244.7       243.8    
        243.0       242.1       241.2       240.3       239.4       238.5       237.6       236.7       235.8       234.9    
        234.0       233.1       232.2       231.3       230.3       229.4       228.5       227.5       226.6       225.7    
        224.7       223.8       222.8       221.8       220.9       219.9       218.9       218.0       217.0       216.0    
        215.0       214.0       213.0       212.0       211.0       209.9       208.9       207.9       206.8       205.8    
        204.7       203.7       202.6       201.5       200.4       199.3       198.2       197.1       196.0       194.9    
        193.7       192.6       191.4       190.3       189.1       188.0       186.8       185.6       184.4       183.2    
  61    260.0       259.2       258.3       257.5       256.6       255.8       254.9       254.1       253.3       252.4    
        251.6       250.7       249.9       249.0       248.2       247.3       246.4       245.6       244.7       243.8    
        243.0       242.1       241.2       240.3       239.4       238.5       237.7       236.8       235.8       234.9    
        234.0       233.1       232.2       231.3       230.4       229.4       228.5       227.6       226.6       225.7    
        224.7       223.8       222.8       221.9       220.9       219.9       218.9       218.0       217.0       216.0    
        215.0       214.0       213.0       212.0       211.0       209.9       208.9       207.9       206.8       205.8    
        204.7       203.6       202.6       201.5       200.4       199.3       198.2       197.1       196.0       194.9    
        193.7       192.6       191.4       190.3       189.1       187.9       186.7       185.5       184.3       183.1    
  62    260.0       259.2       258.4       257.5       256.7       255.8       255.0       254.1       253.3       252.4    
        251.6       250.7       249.9       249.0       248.2       247.3       246.5       245.6       244.7       243.9    
        243.0       242.1       241.2       240.3       239.5       238.6       237.7       236.8       235.9       235.0    
        234.0       233.1       232.2       231.3       230.4       229.4       228.5       227.6       226.6       225.7    
        224.7       223.8       222.8       221.9       220.9       219.9       218.9       218.0       217.0       216.0    
        215.0       214.0       213.0       212.0       211.0       209.9       208.9       207.9       206.8       205.8    
        204.7       203.6       202.6       201.5       200.4       199.3       198.2       197.1       196.0       194.8    
        193.7       192.6       191.4       190.2       189.1       187.9       186.7       185.5       184.3       183.1    
  63    260.1       259.2       258.4       257.5       256.7       255.9       255.0       254.2       253.3       252.5    
        251.6       250.8       249.9       249.1       248.2       247.3       246.5       245.6       244.8       243.9    
        243.0       242.1       241.2       240.4       239.5       238.6       237.7       236.8       235.9       235.0    
        234.1       233.1       232.2       231.3       230.4       229.4       228.5       227.6       226.6       225.7    
        224.7       223.8       222.8       221.9       220.9       219.9       219.0       218.0       217.0       216.0    
        215.0       214.0       213.0       212.0       211.0       209.9       208.9       207.9       206.8       205.8    
        204.7       203.6       202.6       201.5       200.4       199.3       198.2       197.1       195.9       194.8    
        193.7       192.5       191.4       190.2       189.1       187.9       186.7       185.5       184.3       183.1    
  64    260.1       259.3       258.4       257.6       256.7       255.9       255.0       254.2       253.3       252.5    
        251.6       250.8       249.9       249.1       248.2       247.4       246.5       245.6       244.8       243.9    
        243.0       242.1       241.3       240.4       239.5       238.6       237.7       236.8       235.9       235.0    
        234.1       233.2       232.2       231.3       230.4       229.5       228.5       227.6       226.6       225.7    
        224.7       223.8       222.8       221.9       220.9       219.9       219.0       218.0       217.0       216.0    
        215.0       214.0       213.0       212.0       211.0       209.9       208.9       207.8       206.8       205.7    
        204.7       203.6       202.5       201.5       200.4       199.3       198.2       197.1       195.9       194.8    
        193.7       192.5       191.4       190.2       189.0       187.9       186.7       185.5       184.3       183.0    
  65    260.1       259.3       258.4       257.6       256.8       255.9       255.1       254.2       253.4       252.5    
        251.7       250.8       250.0       249.1       248.2       247.4       246.5       245.7       244.8       243.9    
        243.0       242.2       241.3       240.4       239.5       238.6       237.7       236.8       235.9       235.0    
        234.1       233.2       232.3       231.3       230.4       229.5       228.5       227.6       226.7       225.7    
        224.8       223.8       222.8       221.9       220.9       219.9       219.0       218.0       217.0       216.0    
        215.0       214.0       213.0       212.0       210.9       209.9       208.9       207.8       206.8       205.7    
        204.7       203.6       202.5       201.5       200.4       199.3       198.2       197.0       195.9       194.8    
        193.6       192.5       191.3       190.2       189.0       187.8       186.6       185.4       184.2       183.0    
  66    260.2       259.3       258.5       257.6       256.8       255.9       255.1       254.2       253.4       252.5    
        251.7       250.8       250.0       249.1       248.3       247.4       246.5       245.7       244.8       243.9    
        243.1       242.2       241.3       240.4       239.5       238.6       237.7       236.8       235.9       235.0    
        234.1       233.2       232.3       231.3       230.4       229.5       228.5       227.6       226.7       225.7    
        224.8       223.8       222.9       221.9       220.9       219.9       219.0       218.0       217.0       216.0    
        215.0       214.0       213.0       212.0       210.9       209.9       208.9       207.8       206.8       205.7    
        204.7       203.6       202.5       201.4       200.3       199.2       198.1       197.0       195.9       194.8    
        193.6       192.5       191.3       190.2       189.0       187.8       186.6       185.4       184.2       183.0    
  67    260.2       259.4       258.5       257.7       256.8       256.0       255.1       254.3       253.4       252.6    
        251.7       250.8       250.0       249.1       248.3       247.4       246.6       245.7       244.8       243.9    
        243.1       242.2       241.3       240.4       239.5       238.6       237.7       236.8       235.9       235.0    
        234.1       233.2       232.3       231.4       230.4       229.5       228.6       227.6       226.7       225.7    
        224.8       223.8       222.9       221.9       220.9       220.0       219.0       218.0       217.0       216.0    
        215.0       214.0       213.0       212.0       210.9       209.9       208.9       207.8       206.8       205.7    
        204.7       203.6       202.5       201.4       200.3       199.2       198.1       197.0       195.9       194.8    
        193.6       192.5       191.3       190.1       189.0       187.8       186.6       185.4       184.2       182.9    
  68    260.2       259.4       258.5       257.7       256.8       256.0       255.1       254.3       253.4       252.6    
        251.7       250.9       250.0       249.2       248.3       247.4       246.6       245.7       244.8       244.0    
        243.1       242.2       241.3       240.4       239.5       238.6       237.8       236.9       235.9       235.0    
        234.1       233.2       232.3       231.4       230.4       229.5       228.6       227.6       226.7       225.7    
        224.8       223.8       222.9       221.9       220.9       220.0       219.0       218.0       217.0       216.0    
        215.0       214.0       213.0       212.0       210.9       209.9       208.9       207.8       206.8       205.7    
        204.7       203.6       202.5       201.4       200.3       199.2       198.1       197.0       195.9       194.7    
        193.6       192.4       191.3       190.1       188.9       187.8       186.6       185.4       184.1       182.9    
  69    260.3       259.4       258.6       257.7       256.9       256.0       255.2       254.3       253.4       252.6    
        251.7       250.9       250.0       249.2       248.3       247.5       246.6       245.7       244.9       244.0    
        243.1       242.2       241.3       240.4       239.6       238.7       237.8       236.9       236.0       235.0    
        234.1       233.2       232.3       231.4       230.4       229.5       228.6       227.6       226.7       225.7    
        224.8       223.8       222.9       221.9       220.9       220.0       219.0       218.0       217.0       216.0    
        215.0       214.0       213.0       212.0       210.9       209.9       208.9       207.8       206.8       205.7    
        204.7       203.6       202.5       201.4       200.3       199.2       198.1       197.0       195.9       194.7    
        193.6       192.4       191.3       190.1       188.9       187.7       186.5       185.3       184.1       182.9    
  70    260.3       259.5       258.6       257.7       256.9       256.0       255.2       254.3       253.5       252.6    
        251.8       250.9       250.0       249.2       248.3       247.5       246.6       245.7       244.9       244.0    
        243.1       242.2       241.3       240.5       239.6       238.7       237.8       236.9       236.0       235.1    
        234.1       233.2       232.3       231.4       230.5       229.5       228.6       227.6       226.7       225.8    
        224.8       223.8       222.9       221.9       220.9       220.0       219.0       218.0       217.0       216.0    
        215.0       214.0       213.0       212.0       210.9       209.9       208.9       207.8       206.8       205.7    
        204.7       203.6       202.5       201.4       200.3       199.2       198.1       197.0       195.9       194.7    
        193.6       192.4       191.3       190.1       188.9       187.7       186.5       185.3       184.1       182.8    
  71    260.3       259.5       258.6       257.8       256.9       256.1       255.2       254.3       253.5       252.6    
        251.8       250.9       250.1       249.2       248.3       247.5       246.6       245.7       244.9       244.0    
        243.1       242.2       241.4       240.5       239.6       238.7       237.8       236.9       236.0       235.1    
        234.2       233.2       232.3       231.4       230.5       229.5       228.6       227.7       226.7       225.8    
        224.8       223.9       222.9       221.9       221.0       220.0       219.0       218.0       217.0       216.0    
        215.0       214.0       213.0       212.0       210.9       209.9       208.9       207.8       206.8       205.7    
        204.6       203.6       202.5       201.4       200.3       199.2       198.1       197.0       195.8       194.7    
        193.6       192.4       191.2       190.1       188.9       187.7       186.5       185.3       184.1       182.8    
  72    260.4       259.5       258.7       257.8       256.9       256.1       255.2       254.4       253.5       252.6    
        251.8       250.9       250.1       249.2       248.4       247.5       246.6       245.8       244.9       244.0    
        243.1       242.3       241.4       240.5       239.6       238.7       237.8       236.9       236.0       235.1    
        234.2       233.2       232.3       231.4       230.5       229.5       228.6       227.7       226.7       225.8    
        224.8       223.9       222.9       221.9       221.0       220.0       219.0       218.0       217.0       216.0    
        215.0       214.0       213.0       212.0       210.9       209.9       208.9       207.8       206.8       205.7    
        204.6       203.6       202.5       201.4       200.3       199.2       198.1       197.0       195.8       194.7    
        193.5       192.4       191.2       190.0       188.9       187.7       186.5       185.2       184.0       182.8    
  73    260.4       259.5       258.7       257.8       257.0       256.1       255.2       254.4       253.5       252.7    
        251.8       250.9       250.1       249.2       248.4       247.5       246.6       245.8       244.9       244.0    
        243.1       242.3       241.4       240.5       239.6       238.7       237.8       236.9       236.0       235.1    
        234.2       233.3       232.3       231.4       230.5       229.5       228.6       227.7       226.7       225.8    
        224.8       223.9       222.9       221.9       221.0       220.0       219.0       218.0       217.0       216.0    
        215.0       214.0       213.0       212.0       210.9       209.9       208.9       207.8       206.8       205.7    
        204.6       203.6       202.5       201.4       200.3       199.2       198.1       197.0       195.8       194.7    
        193.5       192.4       191.2       190.0       188.8       187.6       186.4       185.2       184.0       182.8    
  74    260.4       259.6       258.7       257.9       257.0       256.1       255.3       254.4       253.5       252.7    
        251.8       251.0       250.1       249.2       248.4       247.5       246.6       245.8       244.9       244.0    
        243.1       242.3       241.4       240.5       239.6       238.7       237.8       236.9       236.0       235.1    
        234.2       233.3       232.3       231.4       230.5       229.6       228.6       227.7       226.7       225.8    
        224.8       223.9       222.9       221.9       221.0       220.0       219.0       218.0       217.0       216.0    
        215.0       214.0       213.0       212.0       210.9       209.9       208.9       207.8       206.8       205.7    
        204.6       203.6       202.5       201.4       200.3       199.2       198.1       196.9       195.8       194.7    
        193.5       192.4       191.2       190.0       188.8       187.6       186.4       185.2       184.0       182.7    
  75    260.5       259.6       258.7       257.9       257.0       256.1       255.3       254.4       253.6       252.7    
        251.8       251.0       250.1       249.3       248.4       247.5       246.7       245.8       244.9       244.0    
        243.2       242.3       241.4       240.5       239.6       238.7       237.8       236.9       236.0       235.1    
        234.2       233.3       232.3       231.4       230.5       229.6       228.6       227.7       226.7       225.8    
        224.8       223.9       222.9       221.9       221.0       220.0       219.0       218.0       217.0       216.0    
        215.0       214.0       213.0       212.0       210.9       209.9       208.9       207.8       206.8       205.7    
        204.6       203.6       202.5       201.4       200.3       199.2       198.1       196.9       195.8       194.7    
        193.5       192.3       191.2       190.0       188.8       187.6       186.4       185.2       183.9       182.7    
  76    260.5       259.6       258.8       257.9       257.0       256.2       255.3       254.4       253.6       252.7    
        251.8       251.0       250.1       249.3       248.4       247.5       246.7       245.8       244.9       244.0    
        243.2       242.3       241.4       240.5       239.6       238.7       237.8       236.9       236.0       235.1    
        234.2       233.3       232.3       231.4       230.5       229.6       228.6       227.7       226.7       225.8    
        224.8       223.9       222.9       221.9       221.0       220.0       219.0       218.0       217.0       216.0    
        215.0       214.0       213.0       212.0       210.9       209.9       208.9       207.8       206.8       205.7    
        204.6       203.6       202.5       201.4       200.3       199.2       198.1       196.9       195.8       194.7    
        193.5       192.3       191.2       190.0       188.8       187.6       186.4       185.1       183.9       182.7    
  77    260.5       259.7       258.8       257.9       257.0       256.2       255.3       254.4       253.6       252.7    
        251.9       251.0       250.1       249.3       248.4       247.5       246.7       245.8       244.9       244.0    
        243.2       242.3       241.4       240.5       239.6       238.7       237.8       236.9       236.0       235.1    
        234.2       233.3       232.3       231.4       230.5       229.6       228.6       227.7       226.7       225.8    
        224.8       223.9       222.9       221.9       221.0       220.0       219.0       218.0       217.0       216.0    
        215.0       214.0       213.0       212.0       210.9       209.9       208.9       207.8       206.8       205.7    
        204.6       203.6       202.5       201.4       200.3       199.2       198.0       196.9       195.8       194.6    
        193.5       192.3       191.2       190.0       188.8       187.6       186.4       185.1       183.9       182.6    
  78    260.6       259.7       258.8       257.9       257.1       256.2       255.3       254.4       253.6       252.7    
        251.9       251.0       250.1       249.3       248.4       247.5       246.7       245.8       244.9       244.1    
        243.2       242.3       241.4       240.5       239.6       238.7       237.8       236.9       236.0       235.1    
        234.2       233.3       232.4       231.4       230.5       229.6       228.6       227.7       226.7       225.8    
        224.8       223.9       222.9       221.9       221.0       220.0       219.0       218.0       217.0       216.0    
        215.0       214.0       213.0       212.0       210.9       209.9       208.9       207.8       206.8       205.7    
        204.6       203.5       202.5       201.4       200.3       199.2       198.0       196.9       195.8       194.6    
        193.5       192.3       191.2       190.0       188.8       187.6       186.3       185.1       183.9       182.6    
  79    260.6       259.7       258.8       257.9       257.1       256.2       255.3       254.5       253.6       252.7    
        251.9       251.0       250.1       249.3       248.4       247.5       246.7       245.8       244.9       244.1    
        243.2       242.3       241.4       240.5       239.6       238.7       237.8       236.9       236.0       235.1    
        234.2       233.3       232.4       231.4       230.5       229.6       228.6       227.7       226.7       225.8    
        224.8       223.9       222.9       221.9       221.0       220.0       219.0       218.0       217.0       216.0    
        215.0       214.0       213.0       212.0       210.9       209.9       208.9       207.8       206.8       205.7    
        204.6       203.5       202.5       201.4       200.3       199.2       198.0       196.9       195.8       194.6    
        193.5       192.3       191.1       190.0       188.8       187.6       186.3       185.1       183.8       182.6    
  80    260.6       259.7       258.8       258.0       257.1       256.2       255.3       254.5       253.6       252.7    
        251.9       251.0       250.1       249.3       248.4       247.5       246.7       245.8       244.9       244.1    
        243.2       242.3       241.4       240.5       239.6       238.7       237.8       236.9       236.0       235.1    
        234.2       233.3       232.4       231.4       230.5       229.6       228.6       227.7       226.7       225.8    
        224.8       223.9       222.9       221.9       221.0       220.0       219.0       218.0       217.0       216.0    
        215.0       214.0       213.0       212.0       210.9       209.9       208.9       207.8       206.8       205.7    
        204.6       203.5       202.5       201.4       200.3       199.2       198.0       196.9       195.8       194.6    
        193.5       192.3       191.1       190.0       188.8       187.5       186.3       185.1       183.8       182.5    

 HEAD WILL BE SAVED ON UNIT   51 AT END OF TIME STEP    1, STRESS PERIOD    1
1
  VOLUMETRIC BUDGET FOR ENTIRE MODEL AT END OF TIME STEP    1, STRESS PERIOD   1
  ------------------------------------------------------------------------------

     CUMULATIVE VOLUMES      L**3       RATES FOR THIS TIME STEP      L**3/T
     ------------------                 ------------------------

           IN:                                      IN:
           ---                                      ---
             STORAGE =           0.0000               STORAGE =           0.0000
       CONSTANT HEAD =       16497.0156         CONSTANT HEAD =       16497.0156
               WELLS =           0.0000                 WELLS =           0.0000
            RECHARGE =        1347.7500              RECHARGE =        1347.7500

            TOTAL IN =       17844.7656              TOTAL IN =       17844.7656

          OUT:                                     OUT:
          ----                                     ----
             STORAGE =           0.0000               STORAGE =           0.0000
       CONSTANT HEAD =       17496.6875         CONSTANT HEAD =       17496.6875
               WELLS =         348.0784                 WELLS =         348.0784
            RECHARGE =           0.0000              RECHARGE =           0.0000

           TOTAL OUT =       17844.7656             TOTAL OUT =       17844.7656

            IN - OUT =           0.0000              IN - OUT =           0.0000

 PERCENT DISCREPANCY =           0.00     PERCENT DISCREPANCY =           0.00






         TIME SUMMARY AT END OF TIME STEP    1 IN STRESS PERIOD    1
                    SECONDS     MINUTES      HOURS       DAYS        YEARS
                    -----------------------------------------------------------
   TIME STEP LENGTH  86400.      1440.0      24.000      1.0000     2.73785E-03
 STRESS PERIOD TIME  86400.      1440.0      24.000      1.0000     2.73785E-03
         TOTAL TIME  86400.      1440.0      24.000      1.0000     2.73785E-03
1

 Run end date and time (yyyy/mm/dd hh:mm:ss): 2026/02/14  4:33:18
 Elapsed run time:  0.107 Seconds

