                                  MODFLOW-2005     
      U.S. GEOLOGICAL SURVEY MODULAR FINITE-DIFFERENCE GROUND-WATER FLOW MODEL
                            VERSION 1.12.00 2/3/2017

 LIST FILE: static_ensemble_1213121.list
                         UNIT    2

 OPENING static_ensemble_1213121.dis
 FILE TYPE:DIS   UNIT   11   STATUS:OLD    
 FORMAT:FORMATTED              ACCESS:SEQUENTIAL          

 OPENING static_ensemble_1213121.bas
 FILE TYPE:BAS6   UNIT   13   STATUS:OLD    
 FORMAT:FORMATTED              ACCESS:SEQUENTIAL          

 OPENING static_ensemble_1213121.lpf
 FILE TYPE:LPF   UNIT   15   STATUS:OLD    
 FORMAT:FORMATTED              ACCESS:SEQUENTIAL          

 OPENING static_ensemble_1213121.evt
 FILE TYPE:EVT   UNIT   22   STATUS:OLD    
 FORMAT:FORMATTED              ACCESS:SEQUENTIAL          

 OPENING static_ensemble_1213121.rch
 FILE TYPE:RCH   UNIT   19   STATUS:OLD    
 FORMAT:FORMATTED              ACCESS:SEQUENTIAL          

 OPENING static_ensemble_1213121.riv
 FILE TYPE:RIV   UNIT   18   STATUS:OLD    
 FORMAT:FORMATTED              ACCESS:SEQUENTIAL          

 OPENING static_ensemble_1213121.wel
 FILE TYPE:WEL   UNIT   20   STATUS:OLD    
 FORMAT:FORMATTED              ACCESS:SEQUENTIAL          

 OPENING static_ensemble_1213121.oc
 FILE TYPE:OC   UNIT   14   STATUS:OLD    
 FORMAT:FORMATTED              ACCESS:SEQUENTIAL          

 OPENING static_ensemble_1213121.pcg
 FILE TYPE:PCG   UNIT   27   STATUS:OLD    
 FORMAT:FORMATTED              ACCESS:SEQUENTIAL          

 OPENING static_ensemble_1213121.cbc
 FILE TYPE:DATA(BINARY)   UNIT   53   STATUS:REPLACE
 FORMAT:UNFORMATTED            ACCESS:STREAM              

 OPENING static_ensemble_1213121.hds
 FILE TYPE:DATA(BINARY)   UNIT   51   STATUS:REPLACE
 FORMAT:UNFORMATTED            ACCESS:STREAM              

 OPENING static_ensemble_1213121.ddn
 FILE TYPE:DATA(BINARY)   UNIT   52   STATUS:REPLACE
 FORMAT:UNFORMATTED            ACCESS:STREAM              

 BAS -- BASIC PACKAGE, VERSION 7, 5/2/2005 INPUT READ FROM UNIT   13
 
 MODFLOW was compiled using mixed precision
 Precision of REAL variables:           6
 Precision of DOUBLE PRECISION variables:          15

 DISCRETIZATION INPUT DATA READ FROM UNIT   11
 # DIS package for MODFLOW-2005 generated by Flopy 3.10.0
    3 LAYERS        50 ROWS        50 COLUMNS
    1 STRESS PERIOD(S) IN SIMULATION
 MODEL TIME UNIT IS DAYS
 MODEL LENGTH UNIT IS METERS
  Confining bed flag for each layer:
   0   0   0

                     DELR =   1000.00    

                     DELC =   1000.00    



           TOP ELEVATION OF LAYER 1
 READING ON UNIT   11 WITH FORMAT: (50E15.6)           



             MODEL LAYER BOTTOM EL. FOR LAYER   1
 READING ON UNIT   11 WITH FORMAT: (50E15.6)           



             MODEL LAYER BOTTOM EL. FOR LAYER   2
 READING ON UNIT   11 WITH FORMAT: (50E15.6)           



             MODEL LAYER BOTTOM EL. FOR LAYER   3
 READING ON UNIT   11 WITH FORMAT: (50E15.6)           


 STRESS PERIOD     LENGTH       TIME STEPS     MULTIPLIER FOR DELT    SS FLAG
 ----------------------------------------------------------------------------
        1         1.000000          1                    1.000         SS

 STEADY-STATE SIMULATION



 
 # BAS6 package for MODFLOW-2005 generated by Flopy 3.10.0                       
 THE FREE FORMAT OPTION HAS BEEN SELECTED



                     BOUNDARY ARRAY FOR LAYER   1
 READING ON UNIT   13 WITH FORMAT: (50I10)             



                     BOUNDARY ARRAY FOR LAYER   2
 READING ON UNIT   13 WITH FORMAT: (50I10)             



                     BOUNDARY ARRAY FOR LAYER   3
 READING ON UNIT   13 WITH FORMAT: (50I10)             

 AQUIFER HEAD WILL BE SET TO  -999.99     AT ALL NO-FLOW NODES (IBOUND=0).



                       INITIAL HEAD FOR LAYER   1
 READING ON UNIT   13 WITH FORMAT: (50E15.6)           



                       INITIAL HEAD FOR LAYER   2
 READING ON UNIT   13 WITH FORMAT: (50E15.6)           



                       INITIAL HEAD FOR LAYER   3
 READING ON UNIT   13 WITH FORMAT: (50E15.6)           
 # OC package for MODFLOW-2005 generated by Flopy 3.10.0

 OUTPUT CONTROL IS SPECIFIED ONLY AT TIME STEPS FOR WHICH OUTPUT IS DESIRED
 COMPACT CELL-BY-CELL BUDGET FILES WILL BE WRITTEN
 AUXILIARY DATA WILL BE SAVED IN CELL-BY-CELL BUDGET FILES
 HEAD PRINT FORMAT CODE IS   0    DRAWDOWN PRINT FORMAT CODE IS   0
 HEADS WILL BE SAVED ON UNIT   51    DRAWDOWNS WILL BE SAVED ON UNIT   52

 LPF -- LAYER-PROPERTY FLOW PACKAGE, VERSION 7, 5/2/2005
         INPUT READ FROM UNIT   15
 # LPF package for MODFLOW-2005 generated by Flopy 3.10.0
 CELL-BY-CELL FLOWS WILL BE SAVED ON UNIT   53
 HEAD AT CELLS THAT CONVERT TO DRY= -1.00000E+30
 No named parameters
 STORAGECOEFFICIENT OPTION:
 Read storage coefficient rather than specific storage

   LAYER FLAGS:
 LAYER       LAYTYP        LAYAVG         CHANI        LAYVKA        LAYWET
 ---------------------------------------------------------------------------
    1             1             0     1.000E+00             0             0
    2             1             0     1.000E+00             0             0
    3             1             0     1.000E+00             0             0

   INTERPRETATION OF LAYER FLAGS:
                        INTERBLOCK     HORIZONTAL    DATA IN
         LAYER TYPE   TRANSMISSIVITY   ANISOTROPY   ARRAY VKA   WETTABILITY
 LAYER      (LAYTYP)      (LAYAVG)       (CHANI)      (LAYVKA)      (LAYWET)
 ---------------------------------------------------------------------------
    1   CONVERTIBLE      HARMONIC     1.000E+00    VERTICAL K  NON-WETTABLE
    2   CONVERTIBLE      HARMONIC     1.000E+00    VERTICAL K  NON-WETTABLE
    3   CONVERTIBLE      HARMONIC     1.000E+00    VERTICAL K  NON-WETTABLE

 WETTING CAPABILITY IS NOT ACTIVE IN ANY LAYER



              HYD. COND. ALONG ROWS FOR LAYER   1
 READING ON UNIT   15 WITH FORMAT: (50E15.6)           



                VERTICAL HYD. COND. FOR LAYER   1
 READING ON UNIT   15 WITH FORMAT: (50E15.6)           



              HYD. COND. ALONG ROWS FOR LAYER   2
 READING ON UNIT   15 WITH FORMAT: (50E15.6)           



                VERTICAL HYD. COND. FOR LAYER   2
 READING ON UNIT   15 WITH FORMAT: (50E15.6)           



              HYD. COND. ALONG ROWS FOR LAYER   3
 READING ON UNIT   15 WITH FORMAT: (50E15.6)           



                VERTICAL HYD. COND. FOR LAYER   3
 READING ON UNIT   15 WITH FORMAT: (50E15.6)           

 WEL -- WELL PACKAGE, VERSION 7, 5/2/2005 INPUT READ FROM UNIT   20
 # WEL package for MODFLOW-2005 generated by Flopy 3.10.0
 No named parameters
 MAXIMUM OF      3 ACTIVE WELLS AT ONE TIME


     0 Well parameters

 RIV -- RIVER PACKAGE, VERSION 7, 5/2/2005 INPUT READ FROM UNIT   18
 # RIV package for MODFLOW-2005 generated by Flopy 3.10.0
 No named parameters
 MAXIMUM OF     49 ACTIVE RIVER REACHES AT ONE TIME
 CELL-BY-CELL FLOWS WILL BE SAVED ON UNIT   53


     0 River parameters

 EVT -- EVAPOTRANSPIRATION PACKAGE, VERSION 7, 5/2/2005
         INPUT READ FROM UNIT   22
 # EVT package for MODFLOW-2005 generated by Flopy 3.10.0
 No named parameters
 OPTION 3 -- EVAPOTRANSPIRATION FROM HIGHEST ACTIVE NODE IN EACH VERTICAL COLUMN
 CELL-BY-CELL FLOWS WILL BE SAVED ON UNIT   53


     0 Evapotranspiration parameters

 RCH -- RECHARGE PACKAGE, VERSION 7, 5/2/2005 INPUT READ FROM UNIT   19
 # RCH package for MODFLOW-2005 generated by Flopy 3.10.0
 No named parameters
 OPTION 3 -- RECHARGE TO HIGHEST ACTIVE NODE IN EACH VERTICAL COLUMN
 CELL-BY-CELL FLOWS WILL BE SAVED ON UNIT   53


     0 Recharge parameters

 PCG -- CONJUGATE-GRADIENT SOLUTION PACKAGE, VERSION 7, 5/2/2005
 # PCG package for MODFLOW-2005 generated by Flopy 3.10.0
 MAXIMUM OF   5000 CALLS OF SOLUTION ROUTINE
 MAXIMUM OF    500 INTERNAL ITERATIONS PER CALL TO SOLUTION ROUTINE
 MATRIX PRECONDITIONING TYPE :    1



                                    SOLUTION BY THE CONJUGATE-GRADIENT METHOD
                                   -------------------------------------------
                    MAXIMUM NUMBER OF CALLS TO PCG ROUTINE =     5000
                        MAXIMUM ITERATIONS PER CALL TO PCG =      500
                               MATRIX PRECONDITIONING TYPE =        1
        RELAXATION FACTOR (ONLY USED WITH PRECOND. TYPE 1) =    0.97000E+00
 PARAMETER OF POLYNOMIAL PRECOND. = 2 (2) OR IS CALCULATED :        0
                         HEAD CHANGE CRITERION FOR CLOSURE =    0.10000E-04
                     RESIDUAL CHANGE CRITERION FOR CLOSURE =    0.10000E-04
            PCG HEAD AND RESIDUAL CHANGE PRINTOUT INTERVAL =      999
     PRINTING FROM SOLVER IS LIMITED(1) OR SUPPRESSED (>1) =        3
                            STEADY-STATE DAMPING PARAMETER =    0.10000E-01
                               TRANSIENT DAMPING PARAMETER =    0.10000E-01
1
                            STRESS PERIOD NO.    1, LENGTH =   1.000000    
                            -----------------------------------------------

                              NUMBER OF TIME STEPS =     1

                               MULTIPLIER FOR DELT =     1.000

                            INITIAL TIME STEP SIZE =   1.000000    

 WELL NO.  LAYER   ROW   COL   STRESS RATE         
 --------------------------------------------------
      1      3     22     39      -1500.    
      2      1     13     15      -4500.    
      3      1     25     26       375.0    

      3 WELLS

 REACH NO.  LAYER   ROW   COL     STAGE      CONDUCTANCE     BOTTOM EL.         
 -------------------------------------------------------------------------------
      1      1     25      2       100.5           50.00           98.00    
      2      1     25      3       99.50           50.00           97.00    
      3      1     25      4       98.50           50.00           96.00    
      4      1     25      5       97.50           50.00           95.00    
      5      1     25      6       96.50           50.00           94.00    
      6      1     25      7       95.50           50.00           93.00    
      7      1     25      8       94.50           50.00           92.00    
      8      1     25      9       93.50           50.00           91.00    
      9      1     25     10       92.50           50.00           90.00    
     10      1     25     11       91.50           50.00           89.00    
     11      1     25     12       90.50           50.00           88.00    
     12      1     25     13       89.50           50.00           87.00    
     13      1     25     14       88.50           50.00           86.00    
     14      1     25     15       87.50           50.00           85.00    
     15      1     25     16       86.50           50.00           84.00    
     16      1     25     17       85.50           50.00           83.00    
     17      1     25     18       84.50           50.00           82.00    
     18      1     25     19       83.50           50.00           81.00    
     19      1     25     20       82.50           50.00           80.00    
     20      1     25     21       81.50           50.00           79.00    
     21      1     25     22       80.50           50.00           78.00    
     22      1     25     23       79.50           50.00           77.00    
     23      1     25     24       78.50           50.00           76.00    
     24      1     25     25       77.50           50.00           75.00    
     25      1     25     26       77.40           50.00           74.90    
     26      1     25     27       77.30           50.00           74.80    
     27      1     25     28       77.20           50.00           74.70    
     28      1     25     29       77.10           50.00           74.60    
     29      1     25     30       77.00           50.00           74.50    
     30      1     25     31       76.90           50.00           74.40    
     31      1     25     32       76.80           50.00           74.30    
     32      1     25     33       76.70           50.00           74.20    
     33      1     25     34       76.60           50.00           74.10    
     34      1     25     35       76.50           50.00           74.00    
     35      1     25     36       76.40           50.00           73.90    
     36      1     25     37       76.30           50.00           73.80    
     37      1     25     38       76.20           50.00           73.70    
     38      1     25     39       76.10           50.00           73.60    
     39      1     25     40       76.00           50.00           73.50    
     40      1     25     41       75.90           50.00           73.40    
     41      1     25     42       75.80           50.00           73.30    
     42      1     25     43       75.70           50.00           73.20    
     43      1     25     44       75.60           50.00           73.10    
     44      1     25     45       75.50           50.00           73.00    
     45      1     25     46       75.40           50.00           72.90    
     46      1     25     47       75.30           50.00           72.80    
     47      1     25     48       75.20           50.00           72.70    
     48      1     25     49       75.10           50.00           72.60    
     49      1     25     50       75.00           50.00           72.50    

     49 RIVER REACHES



                         ET SURFACE
 READING ON UNIT   22 WITH FORMAT: (50E15.6)           



            EVAPOTRANSPIRATION RATE
 READING ON UNIT   22 WITH FORMAT: (50E15.6)           

         EXTINCTION DEPTH =   10.0000    



                           RECHARGE
 READING ON UNIT   19 WITH FORMAT: (50E15.6)           
 
 SOLVING FOR HEAD 

 OUTPUT CONTROL FOR STRESS PERIOD    1   TIME STEP    1
    SAVE HEAD FOR ALL LAYERS
    SAVE DRAWDOWN FOR ALL LAYERS
    SAVE BUDGET
    PRINT HEAD FOR ALL LAYERS
    PRINT BUDGET
 UBDSV2 SAVING "   CONSTANT HEAD" ON UNIT  53 AT TIME STEP  1, STRESS PERIOD   1
 UBDSV1 SAVING "FLOW RIGHT FACE " ON UNIT  53 AT TIME STEP  1, STRESS PERIOD   1
 UBDSV1 SAVING "FLOW FRONT FACE " ON UNIT  53 AT TIME STEP  1, STRESS PERIOD   1
 UBDSV1 SAVING "FLOW LOWER FACE " ON UNIT  53 AT TIME STEP  1, STRESS PERIOD   1
 UBDSV4 SAVING "   RIVER LEAKAGE" ON UNIT  53 AT TIME STEP  1, STRESS PERIOD   1
 UBDSV3 SAVING "              ET" ON UNIT  53 AT TIME STEP  1, STRESS PERIOD   1
 UBDSV3 SAVING "        RECHARGE" ON UNIT  53 AT TIME STEP  1, STRESS PERIOD   1
1
              HEAD IN LAYER   1 AT END OF TIME STEP   1 IN STRESS PERIOD    1
  ---------------------------------------------------------------------------

            1           2           3           4           5           6           7           8           9          10
           11          12          13          14          15          16          17          18          19          20
           21          22          23          24          25          26          27          28          29          30
           31          32          33          34          35          36          37          38          39          40
           41          42          43          44          45          46          47          48          49          50
 ........................................................................................................................
   1  -1000.0     -1000.0     -1000.0     -1000.0     -1000.0     -1000.0     -1000.0     -1000.0     -1000.0     -1000.0    
      -1000.0     -1000.0     -1000.0     -1000.0     -1000.0     -1000.0     -1000.0     -1000.0     -1000.0     -1000.0    
      -1000.0     -1000.0     -1000.0     -1000.0     -1000.0     -1000.0     -1000.0     -1000.0     -1000.0     -1000.0    
      -1000.0     -1000.0     -1000.0     -1000.0     -1000.0     -1000.0     -1000.0     -1000.0     -1000.0     -1000.0    
      -1000.0     -1000.0     -1000.0     -1000.0     -1000.0     -1000.0     -1000.0     -1000.0     -1000.0       70.00    
   2  -1000.0     -1000.0     -1000.0     -1000.0     -1000.0       105.2       104.9       104.5       103.9       103.3    
        102.7       102.0       101.3       100.4       99.49       98.49       97.50       96.54       95.59       94.67    
        93.76       92.87       91.99       91.12       90.27       89.42       88.58       87.75       86.92       86.10    
        85.28       84.47       83.66       82.86       82.06       81.26       80.46       79.67       78.87       78.08    
        77.29       76.49       75.70       74.90       74.10       73.29       72.48       71.66       70.84       70.00    
   3  -1000.0     -1000.0     -1000.0     -1000.0       105.6       105.3       105.0       104.5       103.9       103.3    
        102.7       102.0       101.2       100.4       99.46       98.46       97.47       96.51       95.56       94.64    
        93.74       92.85       91.97       91.11       90.25       89.40       88.56       87.73       86.91       86.09    
        85.27       84.46       83.65       82.85       82.05       81.25       80.45       79.66       78.87       78.07    
        77.28       76.49       75.69       74.89       74.09       73.29       72.48       71.66       70.83       70.00    
   4  -1000.0     -1000.0     -1000.0       106.0       105.7       105.4       104.9       104.4       103.9       103.3    
        102.7       102.0       101.2       100.3       99.40       98.39       97.40       96.44       95.51       94.59    
        93.69       92.80       91.93       91.07       90.22       89.37       88.53       87.70       86.88       86.06    
        85.24       84.43       83.63       82.83       82.03       81.23       80.43       79.64       78.85       78.06    
        77.27       76.47       75.68       74.88       74.09       73.28       72.47       71.66       70.83       70.00    
   5  -1000.0     -1000.0       106.2       106.0       105.7       105.4       104.9       104.4       103.9       103.3    
        102.7       101.9       101.1       100.2       99.30       98.29       97.31       96.35       95.42       94.51    
        93.62       92.74       91.87       91.02       90.17       89.33       88.49       87.66       86.84       86.02    
        85.21       84.40       83.59       82.79       81.99       81.20       80.40       79.61       78.82       78.03    
        77.24       76.45       75.66       74.87       74.07       73.27       72.46       71.65       70.83       70.00    
   6  -1000.0       106.4       106.3       106.0       105.7       105.3       104.9       104.4       103.9       103.3    
        102.6       101.8       101.0       100.1       99.17       98.15       97.17       96.22       95.30       94.40    
        93.52       92.65       91.80       90.95       90.10       89.26       88.43       87.61       86.79       85.97    
        85.16       84.35       83.55       82.75       81.95       81.16       80.37       79.58       78.79       78.00    
        77.22       76.43       75.64       74.85       74.06       73.26       72.45       71.64       70.83       70.00    
   7  -1000.0       106.4       106.2       106.0       105.7       105.3       104.9       104.4       103.9       103.2    
        102.5       101.7       100.9       99.94       98.98       97.96       96.99       96.06       95.16       94.27    
        93.41       92.55       91.70       90.86       90.02       89.19       88.36       87.54       86.72       85.91    
        85.10       84.29       83.49       82.69       81.90       81.11       80.32       79.53       78.75       77.96    
        77.18       76.40       75.61       74.82       74.03       73.24       72.44       71.63       70.82       70.00    
   8  -1000.0       106.3       106.2       105.9       105.7       105.3       104.9       104.4       103.8       103.1    
        102.4       101.5       100.7       99.71       98.73       97.71       96.76       95.85       94.98       94.12    
        93.27       92.43       91.60       90.76       89.93       89.11       88.28       87.46       86.65       85.83    
        85.03       84.22       83.42       82.63       81.84       81.05       80.26       79.48       78.69       77.91    
        77.13       76.36       75.58       74.79       74.01       73.22       72.42       71.62       70.82       70.00    
   9  -1000.0       106.2       106.1       105.9       105.6       105.3       104.8       104.3       103.7       103.0    
        102.2       101.3       100.4       99.41       98.40       97.40       96.48       95.61       94.77       93.95    
        93.13       92.30       91.48       90.66       89.83       89.01       88.19       87.37       86.56       85.75    
        84.94       84.14       83.34       82.55       81.76       80.97       80.19       79.41       78.63       77.86    
        77.08       76.31       75.53       74.76       73.98       73.19       72.41       71.61       70.81       70.00    
  10  -1000.0       106.1       106.0       105.9       105.6       105.2       104.8       104.2       103.6       102.9    
        102.0       101.1       100.1       99.01       97.95       96.98       96.13       95.34       94.55       93.76    
        92.97       92.17       91.36       90.54       89.72       88.90       88.09       87.27       86.46       85.65    
        84.85       84.05       83.25       82.46       81.68       80.89       80.11       79.34       78.56       77.79    
        77.02       76.25       75.49       74.72       73.94       73.17       72.39       71.60       70.80       70.00    
  11  -1000.0       106.1       106.0       105.8       105.5       105.2       104.7       104.2       103.5       102.7    
        101.8       100.8       99.71       98.48       97.29       96.43       95.73       95.04       94.32       93.58    
        92.81       92.03       91.23       90.42       89.61       88.79       87.98       87.16       86.35       85.55    
        84.74       83.95       83.15       82.36       81.58       80.80       80.02       79.25       78.48       77.72    
        76.95       76.19       75.43       74.67       73.90       73.14       72.36       71.58       70.80       70.00    
  12  -1000.0       106.0       105.9       105.7       105.5       105.1       104.6       104.1       103.4       102.6    
        101.7       100.6       99.31       97.80       96.17       95.73       95.30       94.76       94.12       93.42    
        92.67       91.90       91.10       90.30       89.49       88.67       87.86       87.04       86.23       85.43    
        84.63       83.83       83.04       82.25       81.47       80.69       79.92       79.15       78.39       77.63    
        76.88       76.12       75.37       74.62       73.86       73.10       72.34       71.56       70.79       70.00    
  13  -1000.0       106.0       105.9       105.7       105.4       105.0       104.6       104.0       103.3       102.5    
        101.6       100.4       99.03       97.08       93.71       95.00       94.99       94.57       93.97       93.29    
        92.55       91.78       90.98       90.18       89.36       88.54       87.73       86.91       86.11       85.30    
        84.50       83.71       82.92       82.13       81.35       80.57       79.81       79.04       78.29       77.53    
        76.79       76.04       75.30       74.56       73.81       73.06       72.31       71.55       70.78       70.00    
  14  -1000.0       105.9       105.8       105.6       105.3       105.0       104.5       103.9       103.3       102.5    
        101.5       100.4       99.14       97.61       95.98       95.53       95.10       94.56       93.91       93.20    
        92.45       91.67       90.87       90.06       89.23       88.41       87.59       86.78       85.97       85.16    
        84.36       83.57       82.78       82.00       81.22       80.44       79.68       78.92       78.17       77.43    
        76.69       75.96       75.23       74.50       73.76       73.02       72.28       71.53       70.77       70.00    
  15  -1000.0       105.8       105.7       105.6       105.3       104.9       104.5       103.9       103.2       102.4    
        101.5       100.5       99.37       98.12       96.91       96.05       95.33       94.63       93.91       93.15    
        92.37       91.57       90.76       89.93       89.10       88.27       87.44       86.63       85.82       85.01    
        84.21       83.42       82.63       81.85       81.07       80.30       79.54       78.78       78.04       77.31    
        76.58       75.86       75.15       74.43       73.71       72.98       72.25       71.51       70.76       70.00    
  16  -1000.0       105.8       105.7       105.5       105.2       104.9       104.4       103.8       103.2       102.4    
        101.6       100.6       99.57       98.47       97.39       96.40       95.54       94.73       93.93       93.12    
        92.31       91.48       90.65       89.81       88.96       88.12       87.29       86.47       85.66       84.85    
        84.05       83.26       82.47       81.69       80.91       80.14       79.38       78.63       77.89       77.17    
        76.46       75.76       75.06       74.36       73.66       72.94       72.22       71.49       70.75       70.00    
  17  -1000.0       105.7       105.6       105.4       105.1       104.8       104.3       103.8       103.2       102.4    
        101.6       100.7       99.72       98.69       97.65       96.62       95.69       94.80       93.95       93.10    
        92.24       91.39       90.53       89.67       88.81       87.96       87.13       86.30       85.48       84.68    
        83.88       83.09       82.30       81.52       80.74       79.97       79.20       78.45       77.72       77.01    
        76.32       75.65       74.97       74.29       73.60       72.90       72.19       71.47       70.74       70.00    
  18  -1000.0       105.6       105.5       105.3       105.1       104.7       104.3       103.7       103.1       102.4    
        101.6       100.7       99.80       98.82       97.79       96.75       95.77       94.85       93.95       93.06    
        92.17       91.28       90.40       89.52       88.65       87.79       86.95       86.12       85.30       84.50    
        83.70       82.91       82.12       81.34       80.56       79.78       79.01       78.25       77.52       76.83    
        76.17       75.52       74.88       74.22       73.55       72.87       72.17       71.46       70.73       70.00    
  19  -1000.0       105.5       105.4       105.2       105.0       104.6       104.2       103.7       103.0       102.4    
        101.6       100.7       99.82       98.86       97.85       96.79       95.80       94.85       93.93       93.01    
        92.08       91.16       90.25       89.36       88.47       87.61       86.76       85.93       85.11       84.30    
        83.51       82.72       81.94       81.15       80.37       79.58       78.79       78.01       77.28       76.62    
        76.01       75.40       74.79       74.16       73.51       72.84       72.15       71.45       70.73       70.00    
  20  -1000.0       105.4       105.3       105.1       104.9       104.5       104.1       103.6       103.0       102.3    
        101.5       100.7       99.78       98.83       97.82       96.76       95.76       94.82       93.91       92.96    
        91.98       91.01       90.07       89.16       88.27       87.40       86.55       85.72       84.90       84.10    
        83.31       82.52       81.74       80.96       80.17       79.37       78.55       77.73       76.96       76.36    
        75.82       75.28       74.71       74.11       73.48       72.83       72.15       71.45       70.73       70.00    
  21  -1000.0       105.3       105.2       105.0       104.8       104.4       104.0       103.4       102.8       102.2    
        101.4       100.6       99.68       98.73       97.72       96.66       95.66       94.73       93.91       92.95    
        91.84       90.82       89.86       88.94       88.04       87.17       86.32       85.49       84.68       83.88    
        83.10       82.32       81.55       80.77       79.98       79.17       78.30       77.38       76.45       76.05    
        75.64       75.18       74.65       74.08       73.47       72.83       72.16       71.46       70.74       70.00    
  22  -1000.0       105.2       105.1       104.9       104.6       104.3       103.8       103.3       102.7       102.0    
        101.2       100.4       99.53       98.57       97.56       96.49       95.47       94.53       93.69       92.72    
        91.59       90.56       89.60       88.67       87.78       86.91       86.07       85.24       84.44       83.65    
        82.88       82.12       81.36       80.60       79.82       79.00       78.11       77.03       75.44       75.74    
        75.53       75.13       74.64       74.09       73.50       72.87       72.20       71.49       70.76       70.00    
  23  -1000.0       105.1       105.0       104.8       104.5       104.1       103.6       103.1       102.5       101.8    
        101.0       100.2       99.32       98.36       97.34       96.25       95.21       94.22       93.26       92.27    
        91.23       90.23       89.28       88.36       87.49       86.64       85.80       84.98       84.18       83.41    
        82.66       81.92       81.18       80.44       79.69       78.92       78.10       77.22       76.33       75.97    
        75.60       75.17       74.68       74.14       73.56       72.93       72.26       71.55       70.79       70.00    
  24  -1000.0       105.0       104.8       104.6       104.3       103.9       103.4       102.9       102.3       101.6    
        100.8       99.96       99.06       98.09       97.05       95.95       94.88       93.86       92.85       91.84    
        90.84       89.85       88.90       88.00       87.16       86.37       85.51       84.68       83.90       83.15    
        82.42       81.71       81.01       80.30       79.59       78.88       78.14       77.41       76.72       76.21    
        75.75       75.28       74.77       74.24       73.66       73.04       72.37       71.64       70.85       70.00    
  25  -1000.0       104.9       104.7       104.5       104.1       103.7       103.2       102.6       102.0       101.3    
        100.5       99.65       98.74       97.76       96.71       95.60       94.51       93.46       92.43       91.41    
        90.39       89.41       88.46       87.56       86.75       86.18       85.16       84.33       83.57       82.86    
        82.16       81.49       80.82       80.16       79.51       78.85       78.19       77.55       76.95       76.41    
        75.91       75.41       74.90       74.37       73.81       73.20       72.54       71.80       70.97       70.00    
  26  -1000.0       105.3       105.1       104.9       104.6       104.2       103.8       103.2       102.6       101.9    
        101.1       100.3       99.41       98.44       97.39       96.26       95.17       94.10       93.06       92.04    
        91.04       90.06       89.11       88.21       87.37       86.57       85.70       84.87       84.08       83.33    
        82.60       81.89       81.19       80.51       79.83       79.16       78.49       77.85       77.22       76.64    
        76.07       75.52       74.95       74.37       73.76       73.11       72.42       71.67       70.87       70.00    
  27  -1000.0       105.7       105.6       105.4       105.1       104.7       104.3       103.8       103.2       102.5    
        101.7       100.9       100.0       99.06       98.02       96.89       95.79       94.72       93.67       92.64    
        91.64       90.66       89.71       88.79       87.91       87.05       86.19       85.35       84.55       83.77    
        83.01       82.28       81.55       80.85       80.15       79.46       78.78       78.12       77.47       76.85    
        76.24       75.63       75.02       74.39       73.75       73.07       72.36       71.61       70.82       70.00    
  28  -1000.0       106.1       106.0       105.8       105.5       105.2       104.8       104.3       103.7       103.0    
        102.3       101.5       100.6       99.64       98.60       97.47       96.37       95.29       94.24       93.21    
        92.20       91.22       90.26       89.32       88.41       87.53       86.66       85.81       84.98       84.18    
        83.41       82.65       81.90       81.17       80.45       79.75       79.05       78.37       77.70       77.04    
        76.40       75.75       75.10       74.44       73.77       73.07       72.34       71.58       70.80       70.00    
  29  -1000.0       106.5       106.4       106.2       106.0       105.6       105.2       104.7       104.2       103.5    
        102.8       102.0       101.1       100.2       99.13       98.01       96.90       95.83       94.77       93.74    
        92.73       91.74       90.77       89.82       88.89       87.98       87.10       86.24       85.40       84.58    
        83.78       83.00       82.24       81.49       80.75       80.02       79.31       78.61       77.91       77.23    
        76.55       75.88       75.20       74.51       73.80       73.08       72.34       71.58       70.80       70.00    
  30  -1000.0       106.8       106.8       106.6       106.4       106.0       105.6       105.2       104.6       104.0    
        103.3       102.5       101.6       100.7       99.62       98.50       97.40       96.32       95.26       94.23    
        93.21       92.22       91.24       90.28       89.34       88.41       87.51       86.64       85.78       84.95    
        84.13       83.34       82.55       81.79       81.03       80.29       79.56       78.83       78.12       77.41    
        76.71       76.00       75.30       74.58       73.86       73.12       72.36       71.59       70.80       70.00    
  31  -1000.0       107.2       107.1       107.0       106.7       106.4       106.0       105.6       105.0       104.4    
        103.7       102.9       102.1       101.1       100.1       98.95       97.86       96.78       95.72       94.68    
        93.66       92.66       91.67       90.70       89.75       88.81       87.90       87.01       86.14       85.30    
        84.47       83.65       82.85       82.07       81.30       80.54       79.79       79.05       78.31       77.58    
        76.86       76.13       75.40       74.66       73.91       73.16       72.39       71.60       70.81       70.00    
  32  -1000.0       107.5       107.5       107.3       107.1       106.8       106.4       105.9       105.4       104.8    
        104.1       103.3       102.5       101.5       100.5       99.37       98.27       97.20       96.14       95.10    
        94.07       93.07       92.07       91.10       90.13       89.19       88.27       87.36       86.48       85.62    
        84.78       83.95       83.14       82.34       81.56       80.78       80.01       79.25       78.50       77.75    
        77.00       76.25       75.50       74.74       73.98       73.20       72.42       71.62       70.82       70.00    
  33  -1000.0       107.8       107.8       107.6       107.4       107.1       106.7       106.3       105.7       105.1    
        104.4       103.7       102.8       101.9       100.9       99.75       98.66       97.58       96.52       95.48    
        94.45       93.44       92.45       91.46       90.49       89.54       88.60       87.69       86.80       85.93    
        85.07       84.23       83.41       82.60       81.80       81.01       80.22       79.45       78.68       77.91    
        77.14       76.37       75.60       74.83       74.04       73.26       72.46       71.65       70.83       70.00    
  34  -1000.0       108.1       108.0       107.9       107.7       107.4       107.0       106.6       106.0       105.4    
        104.8       104.0       103.2       102.2       101.2       100.1       99.01       97.93       96.87       95.83    
        94.80       93.79       92.79       91.80       90.82       89.86       88.92       88.00       87.10       86.22    
        85.35       84.50       83.66       82.84       82.03       81.22       80.42       79.63       78.84       78.06    
        77.27       76.49       75.70       74.91       74.11       73.31       72.49       71.67       70.84       70.00    
  35  -1000.0       108.4       108.3       108.2       107.9       107.7       107.3       106.8       106.3       105.7    
        105.1       104.3       103.5       102.5       101.5       100.4       99.32       98.25       97.19       96.15    
        95.12       94.10       93.10       92.11       91.13       90.16       89.21       88.28       87.38       86.48    
        85.61       84.75       83.90       83.07       82.24       81.42       80.61       79.80       79.00       78.20    
        77.40       76.60       75.79       74.99       74.18       73.36       72.53       71.70       70.85       70.00    
  36  -1000.0       108.6       108.5       108.4       108.2       107.9       107.5       107.1       106.6       106.0    
        105.3       104.6       103.7       102.8       101.8       100.7       99.61       98.54       97.48       96.44    
        95.41       94.39       93.39       92.39       91.41       90.43       89.48       88.55       87.63       86.73    
        85.85       84.98       84.13       83.28       82.44       81.61       80.78       79.96       79.15       78.33    
        77.52       76.70       75.89       75.07       74.24       73.41       72.57       71.72       70.87       70.00    
  37  -1000.0       108.8       108.7       108.6       108.4       108.1       107.7       107.3       106.8       106.2    
        105.5       104.8       104.0       103.0       102.0       101.0       99.87       98.80       97.75       96.71    
        95.68       94.66       93.65       92.65       91.66       90.69       89.73       88.79       87.87       86.97    
        86.08       85.20       84.33       83.48       82.63       81.78       80.95       80.11       79.28       78.46    
        77.63       76.80       75.97       75.14       74.30       73.46       72.61       71.75       70.88       70.00    
  38  -1000.0       109.0       108.9       108.8       108.6       108.3       107.9       107.5       107.0       106.4    
        105.8       105.0       104.2       103.3       102.3       101.2       100.1       99.04       97.99       96.95    
        95.92       94.90       93.89       92.89       91.90       90.92       89.96       89.02       88.09       87.18    
        86.29       85.40       84.52       83.66       82.80       81.94       81.09       80.25       79.41       78.57    
        77.73       76.89       76.05       75.21       74.36       73.50       72.64       71.77       70.89       70.00    
  39  -1000.0       109.2       109.1       109.0       108.7       108.5       108.1       107.7       107.2       106.6    
        105.9       105.2       104.4       103.5       102.5       101.4       100.3       99.25       98.20       97.16    
        96.13       95.11       94.10       93.10       92.11       91.13       90.17       89.22       88.30       87.38    
        86.48       85.58       84.70       83.82       82.95       82.09       81.23       80.38       79.53       78.68    
        77.83       76.98       76.13       75.27       74.41       73.55       72.67       71.79       70.90       70.00    
  40  -1000.0       109.3       109.2       109.1       108.9       108.6       108.2       107.8       107.3       106.7    
        106.1       105.3       104.5       103.6       102.6       101.6       100.5       99.43       98.39       97.35    
        96.32       95.30       94.30       93.30       92.30       91.32       90.36       89.41       88.48       87.56    
        86.65       85.75       84.86       83.97       83.10       82.22       81.36       80.49       79.63       78.78    
        77.92       77.06       76.20       75.33       74.46       73.59       72.70       71.81       70.91       70.00    
  41  -1000.0       109.4       109.4       109.2       109.0       108.7       108.4       107.9       107.4       106.9    
        106.2       105.5       104.7       103.8       102.8       101.7       100.7       99.60       98.55       97.52    
        96.49       95.48       94.47       93.47       92.48       91.50       90.53       89.58       88.65       87.72    
        86.80       85.90       85.00       84.11       83.22       82.34       81.47       80.60       79.73       78.86    
        78.00       77.13       76.26       75.38       74.51       73.62       72.73       71.83       70.92       70.00    
  42  -1000.0       109.6       109.5       109.3       109.1       108.8       108.5       108.0       107.5       107.0    
        106.3       105.6       104.8       103.9       102.9       101.8       100.8       99.74       98.70       97.66    
        96.64       95.62       94.62       93.62       92.63       91.65       90.68       89.73       88.79       87.86    
        86.94       86.03       85.12       84.23       83.34       82.45       81.57       80.69       79.82       78.94    
        78.07       77.19       76.31       75.43       74.55       73.65       72.75       71.85       70.93       70.00    
  43  -1000.0       109.7       109.6       109.4       109.2       108.9       108.5       108.1       107.6       107.0    
        106.4       105.7       104.9       104.0       103.0       102.0       100.9       99.86       98.82       97.79    
        96.77       95.75       94.75       93.75       92.76       91.78       90.82       89.86       88.92       87.98    
        87.06       86.14       85.23       84.33       83.44       82.54       81.66       80.77       79.89       79.01    
        78.13       77.25       76.36       75.47       74.58       73.68       72.77       71.86       70.94       70.00    
  44  -1000.0       109.8       109.7       109.5       109.2       108.9       108.6       108.2       107.7       107.1    
        106.5       105.8       105.0       104.1       103.1       102.1       101.0       99.96       98.93       97.90    
        96.88       95.86       94.86       93.86       92.87       91.90       90.93       89.97       89.03       88.09    
        87.16       86.24       85.33       84.42       83.52       82.62       81.73       80.84       79.96       79.07    
        78.18       77.29       76.40       75.51       74.61       73.71       72.79       71.87       70.94       70.00    
  45  -1000.0       109.9       109.8       109.6       109.3       108.9       108.6       108.2       107.7       107.1    
        106.5       105.8       105.0       104.1       103.2       102.1       101.1       100.0       99.01       97.98    
        96.97       95.95       94.95       93.95       92.97       91.99       91.02       90.06       89.12       88.18    
        87.25       86.32       85.41       84.50       83.59       82.69       81.80       80.90       80.01       79.12    
        78.23       77.33       76.44       75.54       74.64       73.73       72.81       71.88       70.95       70.00    
  46  -1000.0     -1000.0       109.8       109.6       109.3       109.0       108.6       108.2       107.7       107.2    
        106.5       105.8       105.1       104.2       103.2       102.2       101.1       100.1       99.08       98.05    
        97.04       96.03       95.02       94.03       93.04       92.06       91.10       90.14       89.19       88.25    
        87.31       86.39       85.47       84.56       83.65       82.74       81.84       80.95       80.05       79.16    
        78.26       77.37       76.47       75.56       74.66       73.74       72.82       71.89       70.95       70.00    
  47  -1000.0     -1000.0     -1000.0       109.5       109.3       109.0       108.6       108.2       107.7       107.2    
        106.6       105.9       105.1       104.2       103.3       102.2       101.2       100.2       99.13       98.11    
        97.09       96.08       95.08       94.08       93.10       92.12       91.15       90.19       89.24       88.30    
        87.36       86.44       85.52       84.60       83.69       82.78       81.88       80.98       80.08       79.19    
        78.29       77.39       76.49       75.58       74.67       73.75       72.83       71.90       70.95       70.00    
  48  -1000.0     -1000.0     -1000.0     -1000.0       109.2       109.0       108.7       108.2       107.7       107.1    
        106.5       105.9       105.1       104.3       103.3       102.3       101.2       100.2       99.16       98.14    
        97.12       96.12       95.11       94.12       93.13       92.16       91.19       90.23       89.28       88.33    
        87.40       86.47       85.55       84.63       83.72       82.81       81.91       81.01       80.11       79.21    
        78.31       77.41       76.50       75.59       74.68       73.76       72.84       71.90       70.96       70.00    
  49  -1000.0     -1000.0     -1000.0     -1000.0     -1000.0       108.9       108.6       108.2       107.7       107.1    
        106.5       105.9       105.1       104.3       103.3       102.3       101.2       100.2       99.18       98.16    
        97.14       96.13       95.13       94.14       93.15       92.17       91.21       90.25       89.29       88.35    
        87.41       86.49       85.56       84.64       83.73       82.82       81.92       81.02       80.12       79.22    
        78.32       77.41       76.51       75.60       74.69       73.77       72.84       71.90       70.96       70.00    
  50  -1000.0     -1000.0     -1000.0     -1000.0     -1000.0     -1000.0     -1000.0     -1000.0     -1000.0     -1000.0    
      -1000.0     -1000.0     -1000.0     -1000.0     -1000.0     -1000.0     -1000.0     -1000.0     -1000.0     -1000.0    
      -1000.0     -1000.0     -1000.0     -1000.0     -1000.0     -1000.0     -1000.0     -1000.0     -1000.0     -1000.0    
      -1000.0     -1000.0     -1000.0     -1000.0     -1000.0     -1000.0     -1000.0     -1000.0     -1000.0     -1000.0    
      -1000.0     -1000.0     -1000.0     -1000.0     -1000.0     -1000.0     -1000.0     -1000.0     -1000.0       70.00    
1
              HEAD IN LAYER   2 AT END OF TIME STEP   1 IN STRESS PERIOD    1
  ---------------------------------------------------------------------------

            1           2           3           4           5           6           7           8           9          10
           11          12          13          14          15          16          17          18          19          20
           21          22          23          24          25          26          27          28          29          30
           31          32          33          34          35          36          37          38          39          40
           41          42          43          44          45          46          47          48          49          50
 ........................................................................................................................
   1  -1000.0     -1000.0     -1000.0     -1000.0     -1000.0     -1000.0     -1000.0     -1000.0     -1000.0     -1000.0    
      -1000.0     -1000.0     -1000.0     -1000.0     -1000.0     -1000.0     -1000.0     -1000.0     -1000.0     -1000.0    
      -1000.0     -1000.0     -1000.0     -1000.0     -1000.0     -1000.0     -1000.0     -1000.0     -1000.0     -1000.0    
      -1000.0     -1000.0     -1000.0     -1000.0     -1000.0     -1000.0     -1000.0     -1000.0     -1000.0     -1000.0    
      -1000.0     -1000.0     -1000.0     -1000.0     -1000.0     -1000.0     -1000.0     -1000.0     -1000.0       70.00    
   2  -1000.0     -1000.0     -1000.0     -1000.0     -1000.0     -1000.0     -1000.0       104.5       103.9       103.3    
        102.7       102.0       101.3       100.4       99.49       98.49       97.50       96.54       95.59       94.67    
        93.76       92.87       91.99       91.12       90.27       89.42       88.58       87.75       86.92       86.10    
        85.28       84.47       83.66       82.86       82.06       81.26       80.46       79.67       78.87       78.08    
        77.29       76.49       75.70       74.90       74.10       73.29       72.48       71.66       70.83       70.00    
   3  -1000.0     -1000.0     -1000.0     -1000.0     -1000.0     -1000.0       105.0       104.5       103.9       103.3    
        102.7       102.0       101.2       100.4       99.46       98.46       97.47       96.51       95.56       94.64    
        93.74       92.85       91.97       91.10       90.25       89.40       88.56       87.73       86.91       86.09    
        85.27       84.46       83.65       82.85       82.05       81.25       80.45       79.66       78.87       78.07    
        77.28       76.49       75.69       74.89       74.09       73.29       72.48       71.66       70.83       70.00    
   4  -1000.0     -1000.0     -1000.0     -1000.0     -1000.0       105.4       104.9       104.4       103.9       103.3    
        102.7       102.0       101.2       100.3       99.40       98.39       97.40       96.44       95.51       94.59    
        93.69       92.80       91.93       91.07       90.22       89.37       88.53       87.70       86.88       86.06    
        85.24       84.43       83.63       82.83       82.03       81.23       80.43       79.64       78.85       78.06    
        77.27       76.47       75.68       74.88       74.09       73.28       72.47       71.66       70.83       70.00    
   5  -1000.0     -1000.0     -1000.0     -1000.0       105.7       105.4       104.9       104.4       103.9       103.3    
        102.7       101.9       101.1       100.2       99.30       98.29       97.31       96.35       95.42       94.51    
        93.62       92.74       91.87       91.02       90.17       89.33       88.49       87.66       86.84       86.02    
        85.21       84.40       83.59       82.79       81.99       81.20       80.40       79.61       78.82       78.03    
        77.24       76.45       75.66       74.87       74.07       73.27       72.46       71.65       70.83       70.00    
   6  -1000.0     -1000.0     -1000.0       106.0       105.7       105.3       104.9       104.4       103.9       103.3    
        102.6       101.8       101.0       100.1       99.17       98.15       97.17       96.22       95.30       94.40    
        93.52       92.65       91.80       90.95       90.10       89.26       88.43       87.61       86.79       85.97    
        85.16       84.35       83.55       82.75       81.95       81.16       80.37       79.58       78.79       78.00    
        77.22       76.43       75.64       74.85       74.06       73.26       72.45       71.64       70.83       70.00    
   7  -1000.0     -1000.0       106.2       106.0       105.7       105.3       104.9       104.4       103.9       103.2    
        102.5       101.7       100.9       99.94       98.98       97.96       96.99       96.06       95.16       94.27    
        93.41       92.55       91.70       90.86       90.02       89.19       88.36       87.54       86.72       85.91    
        85.10       84.29       83.49       82.69       81.90       81.11       80.32       79.53       78.75       77.96    
        77.18       76.40       75.61       74.82       74.03       73.24       72.44       71.63       70.82       70.00    
   8  -1000.0       106.3       106.2       105.9       105.7       105.3       104.9       104.4       103.8       103.1    
        102.4       101.5       100.7       99.71       98.73       97.71       96.76       95.85       94.98       94.12    
        93.27       92.43       91.60       90.76       89.93       89.11       88.28       87.46       86.65       85.83    
        85.03       84.22       83.42       82.63       81.84       81.05       80.26       79.48       78.69       77.91    
        77.13       76.36       75.58       74.79       74.01       73.22       72.42       71.62       70.82       70.00    
   9  -1000.0       106.2       106.1       105.9       105.6       105.3       104.8       104.3       103.7       103.0    
        102.2       101.3       100.4       99.41       98.40       97.40       96.48       95.61       94.77       93.95    
        93.13       92.30       91.48       90.66       89.83       89.01       88.19       87.37       86.56       85.75    
        84.94       84.14       83.34       82.55       81.76       80.97       80.19       79.41       78.63       77.86    
        77.08       76.31       75.53       74.76       73.98       73.19       72.41       71.61       70.81       70.00    
  10  -1000.0       106.1       106.0       105.9       105.6       105.2       104.8       104.2       103.6       102.9    
        102.0       101.1       100.1       99.01       97.95       96.98       96.13       95.34       94.55       93.76    
        92.97       92.17       91.36       90.54       89.72       88.90       88.09       87.27       86.46       85.65    
        84.85       84.05       83.25       82.46       81.68       80.89       80.11       79.34       78.56       77.79    
        77.02       76.25       75.49       74.72       73.94       73.17       72.38       71.60       70.80       70.00    
  11  -1000.0       106.1       106.0       105.8       105.5       105.2       104.7       104.2       103.5       102.7    
        101.8       100.8       99.71       98.48       97.29       96.43       95.73       95.04       94.32       93.58    
        92.81       92.03       91.23       90.42       89.61       88.79       87.98       87.16       86.35       85.55    
        84.74       83.95       83.15       82.36       81.58       80.80       80.02       79.25       78.48       77.72    
        76.95       76.19       75.43       74.67       73.90       73.14       72.36       71.58       70.80       70.00    
  12  -1000.0       106.0       105.9       105.7       105.5       105.1       104.6       104.1       103.4       102.6    
        101.7       100.6       99.31       97.79       96.17       95.73       95.30       94.76       94.12       93.42    
        92.67       91.90       91.10       90.30       89.49       88.67       87.86       87.04       86.23       85.43    
        84.63       83.83       83.04       82.25       81.47       80.69       79.92       79.15       78.39       77.63    
        76.88       76.12       75.37       74.62       73.86       73.10       72.34       71.56       70.79       70.00    
  13  -1000.0       106.0       105.9       105.7       105.4       105.0       104.6       104.0       103.3       102.5    
        101.6       100.4       99.03       97.08       93.72       95.00       94.99       94.57       93.97       93.29    
        92.55       91.78       90.98       90.18       89.36       88.54       87.73       86.91       86.11       85.30    
        84.50       83.71       82.92       82.13       81.35       80.57       79.81       79.04       78.29       77.53    
        76.79       76.04       75.30       74.56       73.81       73.06       72.31       71.55       70.78       70.00    
  14  -1000.0       105.9       105.8       105.6       105.3       105.0       104.5       103.9       103.3       102.5    
        101.5       100.4       99.14       97.61       95.98       95.53       95.10       94.56       93.91       93.20    
        92.45       91.67       90.87       90.06       89.23       88.41       87.59       86.78       85.97       85.16    
        84.36       83.57       82.78       81.99       81.22       80.44       79.68       78.92       78.17       77.43    
        76.69       75.96       75.23       74.50       73.76       73.02       72.28       71.53       70.77       70.00    
  15  -1000.0       105.8       105.7       105.6       105.3       104.9       104.5       103.9       103.2       102.4    
        101.5       100.5       99.37       98.12       96.91       96.05       95.33       94.63       93.91       93.15    
        92.37       91.57       90.76       89.93       89.10       88.27       87.44       86.63       85.82       85.01    
        84.21       83.42       82.63       81.85       81.07       80.30       79.54       78.78       78.04       77.31    
        76.58       75.86       75.15       74.43       73.71       72.98       72.25       71.51       70.76       70.00    
  16  -1000.0       105.8       105.7       105.5       105.2       104.9       104.4       103.8       103.2       102.4    
        101.6       100.6       99.57       98.47       97.39       96.40       95.54       94.73       93.93       93.12    
        92.31       91.48       90.65       89.81       88.96       88.12       87.29       86.47       85.66       84.85    
        84.05       83.26       82.47       81.69       80.91       80.14       79.38       78.63       77.89       77.17    
        76.46       75.76       75.06       74.36       73.65       72.94       72.22       71.49       70.75       70.00    
  17  -1000.0       105.7       105.6       105.4       105.1       104.8       104.3       103.8       103.2       102.4    
        101.6       100.7       99.72       98.69       97.65       96.62       95.69       94.80       93.95       93.10    
        92.24       91.39       90.53       89.67       88.81       87.96       87.13       86.30       85.48       84.68    
        83.88       83.09       82.30       81.52       80.74       79.97       79.20       78.45       77.72       77.01    
        76.32       75.65       74.97       74.29       73.60       72.90       72.19       71.47       70.74       70.00    
  18  -1000.0       105.6       105.5       105.3       105.1       104.7       104.3       103.7       103.1       102.4    
        101.6       100.7       99.80       98.82       97.79       96.75       95.77       94.85       93.95       93.06    
        92.17       91.28       90.40       89.52       88.65       87.79       86.95       86.12       85.30       84.50    
        83.70       82.91       82.12       81.34       80.56       79.78       79.01       78.25       77.52       76.83    
        76.17       75.52       74.88       74.22       73.55       72.87       72.17       71.46       70.73       70.00    
  19  -1000.0       105.5       105.4       105.2       105.0       104.6       104.2       103.7       103.0       102.4    
        101.6       100.7       99.82       98.86       97.85       96.79       95.80       94.85       93.93       93.01    
        92.08       91.16       90.25       89.36       88.47       87.61       86.76       85.93       85.11       84.30    
        83.51       82.72       81.94       81.15       80.37       79.58       78.79       78.01       77.28       76.62    
        76.01       75.40       74.79       74.16       73.51       72.84       72.15       71.45       70.73       70.00    
  20  -1000.0       105.4       105.3       105.1       104.9       104.5       104.1       103.6       103.0       102.3    
        101.5       100.7       99.78       98.83       97.82       96.76       95.76       94.82       93.91       92.96    
        91.98       91.01       90.07       89.16       88.27       87.40       86.55       85.72       84.90       84.10    
        83.31       82.52       81.74       80.96       80.17       79.37       78.55       77.73       76.96       76.36    
        75.82       75.28       74.71       74.11       73.48       72.83       72.15       71.45       70.73       70.00    
  21  -1000.0       105.3       105.2       105.0       104.8       104.4       104.0       103.4       102.8       102.2    
        101.4       100.6       99.68       98.73       97.72       96.66       95.66       94.73       93.91       92.95    
        91.84       90.82       89.86       88.94       88.04       87.17       86.32       85.49       84.68       83.88    
        83.10       82.32       81.55       80.77       79.98       79.17       78.30       77.38       76.45       76.05    
        75.64       75.18       74.65       74.08       73.47       72.83       72.16       71.46       70.74       70.00    
  22  -1000.0       105.2       105.1       104.9       104.6       104.3       103.8       103.3       102.7       102.0    
        101.2       100.4       99.53       98.57       97.56       96.49       95.47       94.53       93.69       92.72    
        91.59       90.56       89.60       88.67       87.78       86.91       86.07       85.24       84.44       83.65    
        82.88       82.12       81.36       80.60       79.82       79.00       78.11       77.03       75.41       75.74    
        75.53       75.13       74.64       74.09       73.50       72.87       72.20       71.49       70.76       70.00    
  23  -1000.0       105.1       105.0       104.8       104.5       104.1       103.6       103.1       102.5       101.8    
        101.0       100.2       99.32       98.36       97.34       96.25       95.21       94.22       93.26       92.27    
        91.23       90.23       89.28       88.36       87.49       86.64       85.80       84.98       84.18       83.41    
        82.66       81.92       81.18       80.44       79.69       78.92       78.10       77.22       76.33       75.97    
        75.60       75.17       74.68       74.14       73.56       72.93       72.26       71.55       70.79       70.00    
  24  -1000.0       105.0       104.8       104.6       104.3       103.9       103.4       102.9       102.3       101.6    
        100.8       99.96       99.05       98.09       97.05       95.95       94.88       93.86       92.85       91.84    
        90.84       89.85       88.90       88.00       87.16       86.37       85.51       84.68       83.90       83.15    
        82.42       81.71       81.01       80.30       79.59       78.88       78.14       77.41       76.72       76.21    
        75.75       75.28       74.77       74.24       73.66       73.04       72.37       71.64       70.85       70.00    
  25  -1000.0       104.9       104.7       104.5       104.1       103.7       103.2       102.6       102.0       101.3    
        100.5       99.65       98.74       97.76       96.72       95.60       94.51       93.46       92.43       91.41    
        90.40       89.42       88.47       87.57       86.77       86.18       85.17       84.34       83.58       82.86    
        82.17       81.49       80.83       80.17       79.51       78.85       78.20       77.55       76.95       76.41    
        75.91       75.41       74.90       74.37       73.80       73.20       72.53       71.79       70.97       70.00    
  26  -1000.0       105.3       105.1       104.9       104.6       104.2       103.8       103.2       102.6       101.9    
        101.1       100.3       99.41       98.44       97.39       96.26       95.17       94.10       93.06       92.04    
        91.04       90.06       89.11       88.21       87.37       86.57       85.70       84.87       84.08       83.33    
        82.60       81.89       81.19       80.51       79.83       79.16       78.49       77.85       77.22       76.64    
        76.07       75.52       74.95       74.37       73.76       73.11       72.42       71.67       70.87       70.00    
  27  -1000.0       105.7       105.6       105.4       105.1       104.7       104.3       103.8       103.2       102.5    
        101.7       100.9       100.0       99.06       98.02       96.89       95.79       94.72       93.67       92.64    
        91.64       90.66       89.71       88.79       87.91       87.05       86.19       85.35       84.55       83.77    
        83.01       82.28       81.55       80.85       80.15       79.46       78.78       78.12       77.47       76.85    
        76.24       75.63       75.02       74.39       73.75       73.07       72.36       71.61       70.82       70.00    
  28  -1000.0       106.1       106.0       105.8       105.5       105.2       104.8       104.3       103.7       103.0    
        102.3       101.5       100.6       99.64       98.60       97.47       96.37       95.29       94.24       93.21    
        92.20       91.22       90.26       89.32       88.41       87.53       86.66       85.81       84.98       84.18    
        83.41       82.65       81.90       81.17       80.45       79.75       79.05       78.37       77.70       77.04    
        76.40       75.75       75.10       74.44       73.77       73.07       72.34       71.58       70.80       70.00    
  29  -1000.0       106.5       106.4       106.2       106.0       105.6       105.2       104.7       104.2       103.5    
        102.8       102.0       101.1       100.2       99.13       98.01       96.90       95.83       94.77       93.74    
        92.73       91.74       90.77       89.82       88.89       87.98       87.10       86.24       85.40       84.58    
        83.78       83.00       82.24       81.49       80.75       80.02       79.31       78.61       77.91       77.23    
        76.55       75.88       75.20       74.51       73.80       73.08       72.34       71.58       70.80       70.00    
  30  -1000.0       106.8       106.8       106.6       106.4       106.0       105.6       105.2       104.6       104.0    
        103.3       102.5       101.6       100.7       99.62       98.50       97.40       96.32       95.26       94.23    
        93.21       92.21       91.24       90.28       89.34       88.41       87.51       86.64       85.78       84.95    
        84.13       83.34       82.55       81.79       81.03       80.29       79.56       78.83       78.12       77.41    
        76.71       76.00       75.30       74.58       73.86       73.12       72.36       71.59       70.80       70.00    
  31  -1000.0       107.2       107.1       107.0       106.7       106.4       106.0       105.6       105.0       104.4    
        103.7       102.9       102.1       101.1       100.1       98.95       97.86       96.78       95.72       94.68    
        93.66       92.66       91.67       90.70       89.75       88.81       87.90       87.01       86.14       85.30    
        84.47       83.65       82.85       82.07       81.30       80.54       79.79       79.05       78.31       77.58    
        76.86       76.13       75.40       74.66       73.91       73.16       72.39       71.60       70.81       70.00    
  32  -1000.0       107.5       107.5       107.3       107.1       106.8       106.4       105.9       105.4       104.8    
        104.1       103.3       102.5       101.5       100.5       99.37       98.27       97.20       96.14       95.10    
        94.07       93.07       92.07       91.10       90.13       89.19       88.27       87.36       86.48       85.62    
        84.78       83.95       83.14       82.34       81.56       80.78       80.01       79.25       78.50       77.75    
        77.00       76.25       75.50       74.74       73.98       73.20       72.42       71.62       70.82       70.00    
  33  -1000.0       107.8       107.8       107.6       107.4       107.1       106.7       106.3       105.7       105.1    
        104.4       103.7       102.8       101.9       100.9       99.75       98.66       97.58       96.52       95.48    
        94.45       93.44       92.44       91.46       90.49       89.54       88.60       87.69       86.80       85.93    
        85.07       84.23       83.41       82.60       81.80       81.01       80.22       79.45       78.68       77.91    
        77.14       76.37       75.60       74.83       74.04       73.26       72.46       71.65       70.83       70.00    
  34  -1000.0       108.1       108.0       107.9       107.7       107.4       107.0       106.6       106.0       105.4    
        104.8       104.0       103.2       102.2       101.2       100.1       99.01       97.93       96.87       95.83    
        94.80       93.79       92.79       91.80       90.82       89.86       88.92       88.00       87.10       86.22    
        85.35       84.50       83.66       82.84       82.03       81.22       80.42       79.63       78.84       78.06    
        77.27       76.49       75.70       74.91       74.11       73.31       72.49       71.67       70.84       70.00    
  35  -1000.0       108.4       108.3       108.2       107.9       107.7       107.3       106.8       106.3       105.7    
        105.1       104.3       103.5       102.5       101.5       100.4       99.32       98.25       97.19       96.15    
        95.12       94.10       93.10       92.11       91.12       90.16       89.21       88.28       87.38       86.48    
        85.61       84.75       83.90       83.07       82.24       81.42       80.61       79.80       79.00       78.20    
        77.40       76.60       75.79       74.99       74.18       73.36       72.53       71.70       70.85       70.00    
  36  -1000.0       108.6       108.5       108.4       108.2       107.9       107.5       107.1       106.6       106.0    
        105.3       104.6       103.7       102.8       101.8       100.7       99.61       98.54       97.48       96.44    
        95.41       94.39       93.39       92.39       91.41       90.43       89.48       88.55       87.63       86.73    
        85.85       84.98       84.13       83.28       82.44       81.61       80.78       79.96       79.15       78.33    
        77.52       76.70       75.89       75.07       74.24       73.41       72.57       71.72       70.87       70.00    
  37  -1000.0       108.8       108.7       108.6       108.4       108.1       107.7       107.3       106.8       106.2    
        105.5       104.8       104.0       103.0       102.0       101.0       99.87       98.80       97.75       96.71    
        95.68       94.66       93.65       92.65       91.66       90.69       89.73       88.79       87.87       86.97    
        86.08       85.20       84.33       83.48       82.63       81.78       80.95       80.11       79.28       78.46    
        77.63       76.80       75.97       75.14       74.30       73.46       72.61       71.75       70.88       70.00    
  38  -1000.0       109.0       108.9       108.8       108.6       108.3       107.9       107.5       107.0       106.4    
        105.8       105.0       104.2       103.3       102.3       101.2       100.1       99.04       97.99       96.95    
        95.92       94.90       93.89       92.89       91.90       90.92       89.96       89.02       88.09       87.18    
        86.29       85.40       84.52       83.66       82.80       81.94       81.09       80.25       79.41       78.57    
        77.73       76.89       76.05       75.21       74.36       73.50       72.64       71.77       70.89       70.00    
  39  -1000.0       109.2       109.1       109.0       108.7       108.5       108.1       107.7       107.2       106.6    
        105.9       105.2       104.4       103.5       102.5       101.4       100.3       99.25       98.20       97.16    
        96.13       95.11       94.10       93.10       92.11       91.13       90.17       89.22       88.30       87.38    
        86.48       85.58       84.70       83.82       82.95       82.09       81.23       80.38       79.53       78.68    
        77.83       76.98       76.13       75.27       74.41       73.55       72.67       71.79       70.90       70.00    
  40  -1000.0       109.3       109.2       109.1       108.9       108.6       108.2       107.8       107.3       106.7    
        106.1       105.3       104.5       103.6       102.6       101.6       100.5       99.43       98.39       97.35    
        96.32       95.30       94.30       93.30       92.30       91.32       90.36       89.41       88.48       87.56    
        86.65       85.75       84.86       83.97       83.10       82.22       81.36       80.49       79.63       78.78    
        77.92       77.06       76.20       75.33       74.46       73.58       72.70       71.81       70.91       70.00    
  41  -1000.0       109.4       109.4       109.2       109.0       108.7       108.4       107.9       107.4       106.9    
        106.2       105.5       104.7       103.8       102.8       101.7       100.7       99.60       98.55       97.52    
        96.49       95.48       94.47       93.47       92.48       91.49       90.53       89.58       88.65       87.72    
        86.80       85.90       85.00       84.11       83.22       82.34       81.47       80.60       79.73       78.86    
        78.00       77.13       76.26       75.38       74.51       73.62       72.73       71.83       70.92       70.00    
  42  -1000.0       109.6       109.5       109.3       109.1       108.8       108.5       108.0       107.5       107.0    
        106.3       105.6       104.8       103.9       102.9       101.8       100.8       99.74       98.70       97.66    
        96.64       95.62       94.62       93.62       92.63       91.65       90.68       89.73       88.79       87.86    
        86.94       86.03       85.12       84.23       83.34       82.45       81.57       80.69       79.82       78.94    
        78.07       77.19       76.31       75.43       74.54       73.65       72.75       71.85       70.93       70.00    
  43  -1000.0       109.7       109.6       109.4       109.2       108.9       108.5       108.1       107.6       107.0    
        106.4       105.7       104.9       104.0       103.0       102.0       100.9       99.86       98.82       97.79    
        96.77       95.75       94.75       93.75       92.76       91.78       90.82       89.86       88.92       87.98    
        87.06       86.14       85.23       84.33       83.44       82.54       81.66       80.77       79.89       79.01    
        78.13       77.25       76.36       75.47       74.58       73.68       72.77       71.86       70.94       70.00    
  44  -1000.0     -1000.0       109.7       109.5       109.2       108.9       108.6       108.2       107.7       107.1    
        106.5       105.8       105.0       104.1       103.1       102.1       101.0       99.96       98.93       97.90    
        96.88       95.86       94.86       93.86       92.87       91.90       90.93       89.97       89.03       88.09    
        87.16       86.24       85.33       84.42       83.52       82.62       81.73       80.84       79.96       79.07    
        78.18       77.29       76.40       75.51       74.61       73.71       72.79       71.87       70.94       70.00    
  45  -1000.0     -1000.0     -1000.0       109.6       109.3       108.9       108.6       108.2       107.7       107.1    
        106.5       105.8       105.0       104.1       103.2       102.1       101.1       100.0       99.01       97.98    
        96.96       95.95       94.95       93.95       92.97       91.99       91.02       90.06       89.12       88.18    
        87.25       86.32       85.41       84.50       83.59       82.69       81.80       80.90       80.01       79.12    
        78.23       77.33       76.44       75.54       74.64       73.73       72.81       71.88       70.95       70.00    
  46  -1000.0     -1000.0     -1000.0     -1000.0       109.3       109.0       108.6       108.2       107.7       107.2    
        106.5       105.8       105.1       104.2       103.2       102.2       101.1       100.1       99.08       98.05    
        97.04       96.03       95.02       94.03       93.04       92.06       91.10       90.14       89.19       88.25    
        87.31       86.39       85.47       84.56       83.65       82.74       81.84       80.95       80.05       79.16    
        78.26       77.37       76.47       75.56       74.66       73.74       72.82       71.89       70.95       70.00    
  47  -1000.0     -1000.0     -1000.0     -1000.0     -1000.0       109.0       108.6       108.2       107.7       107.2    
        106.6       105.9       105.1       104.2       103.3       102.2       101.2       100.2       99.13       98.11    
        97.09       96.08       95.08       94.08       93.10       92.12       91.15       90.19       89.24       88.30    
        87.36       86.44       85.52       84.60       83.69       82.78       81.88       80.98       80.08       79.19    
        78.29       77.39       76.49       75.58       74.67       73.75       72.83       71.90       70.95       70.00    
  48  -1000.0     -1000.0     -1000.0     -1000.0     -1000.0     -1000.0       108.7       108.2       107.7       107.1    
        106.5       105.9       105.1       104.3       103.3       102.3       101.2       100.2       99.16       98.14    
        97.12       96.11       95.11       94.12       93.13       92.16       91.19       90.23       89.28       88.33    
        87.40       86.47       85.55       84.63       83.72       82.81       81.91       81.01       80.11       79.21    
        78.31       77.41       76.50       75.59       74.68       73.76       72.84       71.90       70.96       70.00    
  49  -1000.0     -1000.0     -1000.0     -1000.0     -1000.0     -1000.0     -1000.0       108.2       107.7       107.1    
        106.5       105.9       105.1       104.3       103.3       102.3       101.2       100.2       99.18       98.16    
        97.14       96.13       95.13       94.14       93.15       92.17       91.21       90.25       89.29       88.35    
        87.41       86.48       85.56       84.64       83.73       82.82       81.92       81.02       80.12       79.22    
        78.32       77.41       76.51       75.60       74.69       73.77       72.84       71.90       70.96       70.00    
  50  -1000.0     -1000.0     -1000.0     -1000.0     -1000.0     -1000.0     -1000.0     -1000.0     -1000.0     -1000.0    
      -1000.0     -1000.0     -1000.0     -1000.0     -1000.0     -1000.0     -1000.0     -1000.0     -1000.0     -1000.0    
      -1000.0     -1000.0     -1000.0     -1000.0     -1000.0     -1000.0     -1000.0     -1000.0     -1000.0     -1000.0    
      -1000.0     -1000.0     -1000.0     -1000.0     -1000.0     -1000.0     -1000.0     -1000.0     -1000.0     -1000.0    
      -1000.0     -1000.0     -1000.0     -1000.0     -1000.0     -1000.0     -1000.0     -1000.0     -1000.0       70.00    
1
              HEAD IN LAYER   3 AT END OF TIME STEP   1 IN STRESS PERIOD    1
  ---------------------------------------------------------------------------

            1           2           3           4           5           6           7           8           9          10
           11          12          13          14          15          16          17          18          19          20
           21          22          23          24          25          26          27          28          29          30
           31          32          33          34          35          36          37          38          39          40
[...]
        91.23       90.23       89.28       88.36       87.49       86.64       85.80       84.98       84.18       83.41    
        82.66       81.92       81.18       80.44       79.69       78.92       78.10       77.22       76.33       75.97    
        75.61       75.17       74.68       74.14       73.56       72.93       72.26       71.55       70.79       70.00    
  24  -1000.0       105.0       104.8       104.6       104.3       103.9       103.4       102.9       102.3       101.6    
        100.8       99.96       99.05       98.09       97.05       95.95       94.88       93.86       92.85       91.84    
        90.84       89.85       88.90       88.00       87.16       86.37       85.51       84.68       83.90       83.15    
        82.42       81.71       81.01       80.30       79.59       78.88       78.14       77.41       76.72       76.21    
        75.75       75.28       74.77       74.24       73.66       73.04       72.37       71.64       70.85       70.00    
  25  -1000.0       104.9       104.7       104.5       104.1       103.7       103.2       102.6       102.0       101.3    
        100.5       99.65       98.74       97.76       96.72       95.60       94.52       93.46       92.43       91.41    
        90.41       89.43       88.48       87.59       86.78       86.18       85.19       84.35       83.59       82.87    
        82.18       81.50       80.83       80.17       79.52       78.86       78.20       77.55       76.95       76.41    
        75.91       75.41       74.90       74.37       73.80       73.19       72.53       71.79       70.96       70.00    
  26  -1000.0       105.3       105.1       104.9       104.6       104.2       103.8       103.2       102.6       101.9    
        101.1       100.3       99.41       98.43       97.39       96.26       95.17       94.10       93.06       92.04    
        91.04       90.06       89.11       88.21       87.37       86.57       85.70       84.87       84.08       83.33    
        82.60       81.89       81.19       80.51       79.83       79.16       78.49       77.85       77.22       76.64    
        76.07       75.52       74.95       74.37       73.76       73.11       72.42       71.67       70.87       70.00    
  27  -1000.0       105.7       105.6       105.4       105.1       104.7       104.3       103.8       103.2       102.5    
        101.7       100.9       100.0       99.06       98.02       96.89       95.79       94.72       93.67       92.64    
        91.64       90.66       89.71       88.79       87.91       87.05       86.19       85.35       84.55       83.77    
        83.01       82.28       81.55       80.85       80.15       79.46       78.78       78.12       77.47       76.85    
        76.24       75.63       75.02       74.39       73.75       73.07       72.36       71.61       70.82       70.00    
  28  -1000.0       106.1       106.0       105.8       105.5       105.2       104.8       104.3       103.7       103.0    
        102.3       101.5       100.6       99.64       98.60       97.47       96.37       95.29       94.24       93.21    
        92.20       91.22       90.26       89.32       88.41       87.53       86.66       85.81       84.98       84.18    
        83.41       82.65       81.90       81.17       80.45       79.75       79.05       78.37       77.70       77.04    
        76.40       75.75       75.10       74.44       73.77       73.07       72.34       71.58       70.80       70.00    
  29  -1000.0       106.5       106.4       106.2       106.0       105.6       105.2       104.7       104.2       103.5    
        102.8       102.0       101.1       100.2       99.13       98.01       96.90       95.83       94.77       93.74    
        92.73       91.74       90.77       89.82       88.89       87.98       87.10       86.24       85.40       84.58    
        83.78       83.00       82.24       81.49       80.75       80.02       79.31       78.61       77.91       77.23    
        76.55       75.88       75.20       74.51       73.80       73.08       72.34       71.58       70.80       70.00    
  30  -1000.0       106.8       106.8       106.6       106.4       106.0       105.6       105.2       104.6       104.0    
        103.3       102.5       101.6       100.7       99.62       98.50       97.40       96.32       95.26       94.23    
        93.21       92.21       91.24       90.28       89.34       88.41       87.51       86.64       85.78       84.95    
        84.13       83.34       82.55       81.79       81.03       80.29       79.56       78.83       78.12       77.41    
        76.71       76.00       75.30       74.58       73.86       73.12       72.36       71.59       70.80       70.00    
  31  -1000.0       107.2       107.1       107.0       106.7       106.4       106.0       105.6       105.0       104.4    
        103.7       102.9       102.1       101.1       100.1       98.95       97.86       96.78       95.72       94.68    
        93.66       92.66       91.67       90.70       89.75       88.81       87.90       87.01       86.14       85.30    
        84.47       83.65       82.85       82.07       81.30       80.54       79.79       79.05       78.31       77.58    
        76.86       76.13       75.40       74.66       73.91       73.16       72.39       71.60       70.81       70.00    
  32  -1000.0       107.5       107.5       107.3       107.1       106.8       106.4       105.9       105.4       104.8    
        104.1       103.3       102.5       101.5       100.5       99.37       98.27       97.20       96.14       95.10    
        94.07       93.07       92.07       91.10       90.13       89.19       88.27       87.36       86.48       85.62    
        84.78       83.95       83.14       82.34       81.56       80.78       80.01       79.25       78.50       77.75    
        77.00       76.25       75.50       74.74       73.98       73.20       72.42       71.62       70.82       70.00    
  33  -1000.0       107.8       107.8       107.6       107.4       107.1       106.7       106.3       105.7       105.1    
        104.4       103.7       102.8       101.9       100.9       99.75       98.66       97.58       96.52       95.48    
        94.45       93.44       92.44       91.46       90.49       89.54       88.60       87.69       86.80       85.93    
        85.07       84.23       83.41       82.60       81.80       81.01       80.22       79.45       78.68       77.91    
        77.14       76.37       75.60       74.83       74.04       73.26       72.46       71.65       70.83       70.00    
  34  -1000.0       108.1       108.0       107.9       107.7       107.4       107.0       106.6       106.0       105.4    
        104.8       104.0       103.2       102.2       101.2       100.1       99.01       97.93       96.87       95.83    
        94.80       93.79       92.79       91.80       90.82       89.86       88.92       88.00       87.10       86.22    
        85.35       84.50       83.66       82.84       82.03       81.22       80.42       79.63       78.84       78.06    
        77.27       76.49       75.70       74.91       74.11       73.31       72.49       71.67       70.84       70.00    
  35  -1000.0       108.4       108.3       108.2       107.9       107.7       107.3       106.8       106.3       105.7    
        105.1       104.3       103.5       102.5       101.5       100.4       99.32       98.25       97.19       96.15    
        95.12       94.10       93.10       92.11       91.12       90.16       89.21       88.28       87.38       86.48    
        85.61       84.75       83.90       83.07       82.24       81.42       80.61       79.80       79.00       78.20    
        77.40       76.60       75.79       74.99       74.18       73.36       72.53       71.70       70.85       70.00    
  36  -1000.0       108.6       108.5       108.4       108.2       107.9       107.5       107.1       106.6       106.0    
        105.3       104.6       103.7       102.8       101.8       100.7       99.61       98.54       97.48       96.44    
        95.41       94.39       93.39       92.39       91.40       90.43       89.48       88.55       87.63       86.73    
        85.85       84.98       84.13       83.28       82.44       81.61       80.78       79.96       79.15       78.33    
        77.52       76.70       75.89       75.07       74.24       73.41       72.57       71.72       70.87       70.00    
  37  -1000.0       108.8       108.7       108.6       108.4       108.1       107.7       107.3       106.8       106.2    
        105.5       104.8       104.0       103.0       102.0       101.0       99.87       98.80       97.75       96.71    
        95.68       94.66       93.65       92.65       91.66       90.69       89.73       88.79       87.87       86.97    
        86.08       85.20       84.33       83.48       82.63       81.78       80.94       80.11       79.28       78.46    
        77.63       76.80       75.97       75.14       74.30       73.46       72.61       71.75       70.88       70.00    
  38  -1000.0       109.0       108.9       108.8       108.6       108.3       107.9       107.5       107.0       106.4    
        105.8       105.0       104.2       103.3       102.3       101.2       100.1       99.04       97.99       96.95    
        95.92       94.90       93.89       92.89       91.90       90.92       89.96       89.02       88.09       87.18    
        86.29       85.40       84.52       83.66       82.80       81.94       81.09       80.25       79.41       78.57    
        77.73       76.89       76.05       75.21       74.36       73.50       72.64       71.77       70.89       70.00    
  39  -1000.0       109.2       109.1       109.0       108.7       108.5       108.1       107.7       107.2       106.6    
        105.9       105.2       104.4       103.5       102.5       101.4       100.3       99.25       98.20       97.16    
        96.13       95.11       94.10       93.10       92.11       91.13       90.17       89.22       88.30       87.38    
        86.48       85.58       84.70       83.82       82.95       82.09       81.23       80.38       79.53       78.68    
        77.83       76.98       76.13       75.27       74.41       73.55       72.67       71.79       70.90       70.00    
  40  -1000.0       109.3       109.2       109.1       108.9       108.6       108.2       107.8       107.3       106.7    
        106.1       105.3       104.5       103.6       102.6       101.6       100.5       99.43       98.39       97.35    
        96.32       95.30       94.30       93.29       92.30       91.32       90.36       89.41       88.48       87.56    
        86.65       85.75       84.86       83.97       83.09       82.22       81.36       80.49       79.63       78.78    
        77.92       77.06       76.20       75.33       74.46       73.58       72.70       71.81       70.91       70.00    
  41  -1000.0       109.4       109.4       109.2       109.0       108.7       108.4       107.9       107.4       106.9    
        106.2       105.5       104.7       103.8       102.8       101.7       100.7       99.60       98.55       97.52    
        96.49       95.48       94.47       93.47       92.48       91.49       90.53       89.58       88.65       87.72    
        86.80       85.90       85.00       84.11       83.22       82.34       81.47       80.60       79.73       78.86    
        78.00       77.13       76.26       75.38       74.50       73.62       72.73       71.83       70.92       70.00    
  42  -1000.0     -1000.0       109.5       109.3       109.1       108.8       108.5       108.0       107.5       107.0    
        106.3       105.6       104.8       103.9       102.9       101.8       100.8       99.74       98.70       97.66    
        96.64       95.62       94.62       93.62       92.63       91.65       90.68       89.73       88.79       87.86    
        86.94       86.03       85.12       84.23       83.34       82.45       81.57       80.69       79.82       78.94    
        78.07       77.19       76.31       75.43       74.54       73.65       72.75       71.85       70.93       70.00    
  43  -1000.0     -1000.0     -1000.0       109.4       109.2       108.9       108.5       108.1       107.6       107.0    
        106.4       105.7       104.9       104.0       103.0       102.0       100.9       99.86       98.82       97.79    
        96.77       95.75       94.75       93.75       92.76       91.78       90.82       89.86       88.92       87.98    
        87.06       86.14       85.23       84.33       83.44       82.54       81.66       80.77       79.89       79.01    
        78.13       77.25       76.36       75.47       74.58       73.68       72.77       71.86       70.94       70.00    
  44  -1000.0     -1000.0     -1000.0     -1000.0       109.2       108.9       108.6       108.2       107.7       107.1    
        106.5       105.8       105.0       104.1       103.1       102.1       101.0       99.96       98.93       97.90    
        96.88       95.86       94.86       93.86       92.87       91.90       90.93       89.97       89.03       88.09    
        87.16       86.24       85.33       84.42       83.52       82.62       81.73       80.84       79.96       79.07    
        78.18       77.29       76.40       75.51       74.61       73.71       72.79       71.87       70.94       70.00    
  45  -1000.0     -1000.0     -1000.0     -1000.0     -1000.0       108.9       108.6       108.2       107.7       107.1    
        106.5       105.8       105.0       104.1       103.2       102.1       101.1       100.0       99.01       97.98    
        96.96       95.95       94.95       93.95       92.97       91.99       91.02       90.06       89.12       88.18    
        87.25       86.32       85.41       84.50       83.59       82.69       81.79       80.90       80.01       79.12    
        78.23       77.33       76.44       75.54       74.64       73.73       72.81       71.88       70.95       70.00    
  46  -1000.0     -1000.0     -1000.0     -1000.0     -1000.0     -1000.0       108.6       108.2       107.7       107.2    
        106.5       105.8       105.1       104.2       103.2       102.2       101.1       100.1       99.08       98.05    
        97.04       96.03       95.02       94.03       93.04       92.06       91.10       90.14       89.19       88.25    
        87.31       86.39       85.47       84.56       83.65       82.74       81.84       80.95       80.05       79.16    
        78.26       77.37       76.47       75.56       74.66       73.74       72.82       71.89       70.95       70.00    
  47  -1000.0     -1000.0     -1000.0     -1000.0     -1000.0     -1000.0     -1000.0       108.2       107.7       107.2    
        106.6       105.9       105.1       104.2       103.3       102.2       101.2       100.2       99.13       98.11    
        97.09       96.08       95.08       94.08       93.10       92.12       91.15       90.19       89.24       88.30    
        87.36       86.44       85.52       84.60       83.69       82.78       81.88       80.98       80.08       79.19    
        78.29       77.39       76.49       75.58       74.67       73.75       72.83       71.90       70.95       70.00    
  48  -1000.0     -1000.0     -1000.0     -1000.0     -1000.0     -1000.0     -1000.0     -1000.0       107.7       107.1    
        106.5       105.9       105.1       104.3       103.3       102.3       101.2       100.2       99.16       98.14    
        97.12       96.11       95.11       94.12       93.13       92.16       91.19       90.23       89.28       88.33    
        87.40       86.47       85.55       84.63       83.72       82.81       81.91       81.01       80.11       79.21    
        78.31       77.41       76.50       75.59       74.68       73.76       72.84       71.90       70.96       70.00    
  49  -1000.0     -1000.0     -1000.0     -1000.0     -1000.0     -1000.0     -1000.0     -1000.0     -1000.0       107.1    
        106.5       105.9       105.1       104.3       103.3       102.3       101.2       100.2       99.18       98.16    
        97.14       96.13       95.13       94.14       93.15       92.17       91.21       90.25       89.29       88.35    
        87.41       86.48       85.56       84.64       83.73       82.82       81.92       81.02       80.12       79.22    
        78.32       77.41       76.51       75.60       74.69       73.77       72.84       71.90       70.96       70.00    
  50  -1000.0     -1000.0     -1000.0     -1000.0     -1000.0     -1000.0     -1000.0     -1000.0     -1000.0     -1000.0    
      -1000.0     -1000.0     -1000.0     -1000.0     -1000.0     -1000.0     -1000.0     -1000.0     -1000.0     -1000.0    
      -1000.0     -1000.0     -1000.0     -1000.0     -1000.0     -1000.0     -1000.0     -1000.0     -1000.0     -1000.0    
      -1000.0     -1000.0     -1000.0     -1000.0     -1000.0     -1000.0     -1000.0     -1000.0     -1000.0     -1000.0    
      -1000.0     -1000.0     -1000.0     -1000.0     -1000.0     -1000.0     -1000.0     -1000.0     -1000.0       70.00    

 HEAD WILL BE SAVED ON UNIT   51 AT END OF TIME STEP    1, STRESS PERIOD    1

 DRAWDOWN WILL BE SAVED ON UNIT   52 AT END OF TIME STEP    1, STRESS PERIOD    1
1
  VOLUMETRIC BUDGET FOR ENTIRE MODEL AT END OF TIME STEP    1, STRESS PERIOD   1
  ------------------------------------------------------------------------------

     CUMULATIVE VOLUMES      L**3       RATES FOR THIS TIME STEP      L**3/T
     ------------------                 ------------------------

           IN:                                      IN:
           ---                                      ---
             STORAGE =           0.0000               STORAGE =           0.0000
       CONSTANT HEAD =           0.0000         CONSTANT HEAD =           0.0000
               WELLS =         375.0000                 WELLS =         375.0000
       RIVER LEAKAGE =         690.2964         RIVER LEAKAGE =         690.2964
                  ET =           0.0000                    ET =           0.0000
            RECHARGE =       33199.9961              RECHARGE =       33199.9961

            TOTAL IN =       34265.2930              TOTAL IN =       34265.2930

          OUT:                                     OUT:
          ----                                     ----
             STORAGE =           0.0000               STORAGE =           0.0000
       CONSTANT HEAD =       14177.9570         CONSTANT HEAD =       14177.9570
               WELLS =        6000.0000                 WELLS =        6000.0000
       RIVER LEAKAGE =       13103.3945         RIVER LEAKAGE =       13103.3945
                  ET =         983.9253                    ET =         983.9253
            RECHARGE =           0.0000              RECHARGE =           0.0000

           TOTAL OUT =       34265.2773             TOTAL OUT =       34265.2773

            IN - OUT =       1.5625E-02              IN - OUT =       1.5625E-02

 PERCENT DISCREPANCY =           0.00     PERCENT DISCREPANCY =           0.00






         TIME SUMMARY AT END OF TIME STEP    1 IN STRESS PERIOD    1
                    SECONDS     MINUTES      HOURS       DAYS        YEARS
                    -----------------------------------------------------------
   TIME STEP LENGTH  86400.      1440.0      24.000      1.0000     2.73785E-03
 STRESS PERIOD TIME  86400.      1440.0      24.000      1.0000     2.73785E-03
         TOTAL TIME  86400.      1440.0      24.000      1.0000     2.73785E-03
1

 Run end date and time (yyyy/mm/dd hh:mm:ss): 2026/02/25  3:34:28
 Elapsed run time: 17.033 Seconds

