                                  MODFLOW-2005     
      U.S. GEOLOGICAL SURVEY MODULAR FINITE-DIFFERENCE GROUND-WATER FLOW MODEL
                            VERSION 1.12.00 2/3/2017

 LIST FILE: static_ensemble_S1bc_1111111.list
                         UNIT    2

 OPENING static_ensemble_S1bc_1111111.dis
 FILE TYPE:DIS   UNIT   11   STATUS:OLD    
 FORMAT:FORMATTED              ACCESS:SEQUENTIAL          

 OPENING static_ensemble_S1bc_1111111.bas
 FILE TYPE:BAS6   UNIT   13   STATUS:OLD    
 FORMAT:FORMATTED              ACCESS:SEQUENTIAL          

 OPENING static_ensemble_S1bc_1111111.lpf
 FILE TYPE:LPF   UNIT   15   STATUS:OLD    
 FORMAT:FORMATTED              ACCESS:SEQUENTIAL          

 OPENING static_ensemble_S1bc_1111111.evt
 FILE TYPE:EVT   UNIT   22   STATUS:OLD    
 FORMAT:FORMATTED              ACCESS:SEQUENTIAL          

 OPENING static_ensemble_S1bc_1111111.rch
 FILE TYPE:RCH   UNIT   19   STATUS:OLD    
 FORMAT:FORMATTED              ACCESS:SEQUENTIAL          

 OPENING static_ensemble_S1bc_1111111.riv
 FILE TYPE:RIV   UNIT   18   STATUS:OLD    
 FORMAT:FORMATTED              ACCESS:SEQUENTIAL          

 OPENING static_ensemble_S1bc_1111111.wel
 FILE TYPE:WEL   UNIT   20   STATUS:OLD    
 FORMAT:FORMATTED              ACCESS:SEQUENTIAL          

 OPENING static_ensemble_S1bc_1111111.oc
 FILE TYPE:OC   UNIT   14   STATUS:OLD    
 FORMAT:FORMATTED              ACCESS:SEQUENTIAL          

 OPENING static_ensemble_S1bc_1111111.pcg
 FILE TYPE:PCG   UNIT   27   STATUS:OLD    
 FORMAT:FORMATTED              ACCESS:SEQUENTIAL          

 OPENING static_ensemble_S1bc_1111111.cbc
 FILE TYPE:DATA(BINARY)   UNIT   53   STATUS:REPLACE
 FORMAT:UNFORMATTED            ACCESS:STREAM              

 OPENING static_ensemble_S1bc_1111111.hds
 FILE TYPE:DATA(BINARY)   UNIT   51   STATUS:REPLACE
 FORMAT:UNFORMATTED            ACCESS:STREAM              

 OPENING static_ensemble_S1bc_1111111.ddn
 FILE TYPE:DATA(BINARY)   UNIT   52   STATUS:REPLACE
 FORMAT:UNFORMATTED            ACCESS:STREAM              

 BAS -- BASIC PACKAGE, VERSION 7, 5/2/2005 INPUT READ FROM UNIT   13
 
 MODFLOW was compiled using mixed precision
 Precision of REAL variables:           6
 Precision of DOUBLE PRECISION variables:          15

 DISCRETIZATION INPUT DATA READ FROM UNIT   11
 # DIS package for MODFLOW-2005 generated by Flopy 3.10.0
    3 LAYERS        50 ROWS        50 COLUMNS
    1 STRESS PERIOD(S) IN SIMULATION
 MODEL TIME UNIT IS DAYS
 MODEL LENGTH UNIT IS METERS
  Confining bed flag for each layer:
   0   0   0

                     DELR =   1000.00    

                     DELC =   1000.00    



           TOP ELEVATION OF LAYER 1
 READING ON UNIT   11 WITH FORMAT: (50E15.6)           



             MODEL LAYER BOTTOM EL. FOR LAYER   1
 READING ON UNIT   11 WITH FORMAT: (50E15.6)           



             MODEL LAYER BOTTOM EL. FOR LAYER   2
 READING ON UNIT   11 WITH FORMAT: (50E15.6)           



             MODEL LAYER BOTTOM EL. FOR LAYER   3
 READING ON UNIT   11 WITH FORMAT: (50E15.6)           


 STRESS PERIOD     LENGTH       TIME STEPS     MULTIPLIER FOR DELT    SS FLAG
 ----------------------------------------------------------------------------
        1         1.000000          1                    1.000         SS

 STEADY-STATE SIMULATION



 
 # BAS6 package for MODFLOW-2005 generated by Flopy 3.10.0                       
 THE FREE FORMAT OPTION HAS BEEN SELECTED



                     BOUNDARY ARRAY FOR LAYER   1
 READING ON UNIT   13 WITH FORMAT: (50I10)             



                     BOUNDARY ARRAY FOR LAYER   2
 READING ON UNIT   13 WITH FORMAT: (50I10)             



                     BOUNDARY ARRAY FOR LAYER   3
 READING ON UNIT   13 WITH FORMAT: (50I10)             

 AQUIFER HEAD WILL BE SET TO  -999.99     AT ALL NO-FLOW NODES (IBOUND=0).



                       INITIAL HEAD FOR LAYER   1
 READING ON UNIT   13 WITH FORMAT: (50E15.6)           



                       INITIAL HEAD FOR LAYER   2
 READING ON UNIT   13 WITH FORMAT: (50E15.6)           



                       INITIAL HEAD FOR LAYER   3
 READING ON UNIT   13 WITH FORMAT: (50E15.6)           
 # OC package for MODFLOW-2005 generated by Flopy 3.10.0

 OUTPUT CONTROL IS SPECIFIED ONLY AT TIME STEPS FOR WHICH OUTPUT IS DESIRED
 COMPACT CELL-BY-CELL BUDGET FILES WILL BE WRITTEN
 AUXILIARY DATA WILL BE SAVED IN CELL-BY-CELL BUDGET FILES
 HEAD PRINT FORMAT CODE IS   0    DRAWDOWN PRINT FORMAT CODE IS   0
 HEADS WILL BE SAVED ON UNIT   51    DRAWDOWNS WILL BE SAVED ON UNIT   52

 LPF -- LAYER-PROPERTY FLOW PACKAGE, VERSION 7, 5/2/2005
         INPUT READ FROM UNIT   15
 # LPF package for MODFLOW-2005 generated by Flopy 3.10.0
 CELL-BY-CELL FLOWS WILL BE SAVED ON UNIT   53
 HEAD AT CELLS THAT CONVERT TO DRY= -1.00000E+30
 No named parameters
 STORAGECOEFFICIENT OPTION:
 Read storage coefficient rather than specific storage

   LAYER FLAGS:
 LAYER       LAYTYP        LAYAVG         CHANI        LAYVKA        LAYWET
 ---------------------------------------------------------------------------
    1             1             0     1.000E+00             0             0
    2             1             0     1.000E+00             0             0
    3             1             0     1.000E+00             0             0

   INTERPRETATION OF LAYER FLAGS:
                        INTERBLOCK     HORIZONTAL    DATA IN
         LAYER TYPE   TRANSMISSIVITY   ANISOTROPY   ARRAY VKA   WETTABILITY
 LAYER      (LAYTYP)      (LAYAVG)       (CHANI)      (LAYVKA)      (LAYWET)
 ---------------------------------------------------------------------------
    1   CONVERTIBLE      HARMONIC     1.000E+00    VERTICAL K  NON-WETTABLE
    2   CONVERTIBLE      HARMONIC     1.000E+00    VERTICAL K  NON-WETTABLE
    3   CONVERTIBLE      HARMONIC     1.000E+00    VERTICAL K  NON-WETTABLE

 WETTING CAPABILITY IS NOT ACTIVE IN ANY LAYER



              HYD. COND. ALONG ROWS FOR LAYER   1
 READING ON UNIT   15 WITH FORMAT: (50E15.6)           



                VERTICAL HYD. COND. FOR LAYER   1
 READING ON UNIT   15 WITH FORMAT: (50E15.6)           



              HYD. COND. ALONG ROWS FOR LAYER   2
 READING ON UNIT   15 WITH FORMAT: (50E15.6)           



                VERTICAL HYD. COND. FOR LAYER   2
 READING ON UNIT   15 WITH FORMAT: (50E15.6)           



              HYD. COND. ALONG ROWS FOR LAYER   3
 READING ON UNIT   15 WITH FORMAT: (50E15.6)           



                VERTICAL HYD. COND. FOR LAYER   3
 READING ON UNIT   15 WITH FORMAT: (50E15.6)           

 WEL -- WELL PACKAGE, VERSION 7, 5/2/2005 INPUT READ FROM UNIT   20
 # WEL package for MODFLOW-2005 generated by Flopy 3.10.0
 No named parameters
 MAXIMUM OF      3 ACTIVE WELLS AT ONE TIME


     0 Well parameters

 RIV -- RIVER PACKAGE, VERSION 7, 5/2/2005 INPUT READ FROM UNIT   18
 # RIV package for MODFLOW-2005 generated by Flopy 3.10.0
 No named parameters
 MAXIMUM OF     49 ACTIVE RIVER REACHES AT ONE TIME
 CELL-BY-CELL FLOWS WILL BE SAVED ON UNIT   53


     0 River parameters

 EVT -- EVAPOTRANSPIRATION PACKAGE, VERSION 7, 5/2/2005
         INPUT READ FROM UNIT   22
 # EVT package for MODFLOW-2005 generated by Flopy 3.10.0
 No named parameters
 OPTION 3 -- EVAPOTRANSPIRATION FROM HIGHEST ACTIVE NODE IN EACH VERTICAL COLUMN
 CELL-BY-CELL FLOWS WILL BE SAVED ON UNIT   53


     0 Evapotranspiration parameters

 RCH -- RECHARGE PACKAGE, VERSION 7, 5/2/2005 INPUT READ FROM UNIT   19
 # RCH package for MODFLOW-2005 generated by Flopy 3.10.0
 No named parameters
 OPTION 3 -- RECHARGE TO HIGHEST ACTIVE NODE IN EACH VERTICAL COLUMN
 CELL-BY-CELL FLOWS WILL BE SAVED ON UNIT   53


     0 Recharge parameters

 PCG -- CONJUGATE-GRADIENT SOLUTION PACKAGE, VERSION 7, 5/2/2005
 # PCG package for MODFLOW-2005 generated by Flopy 3.10.0
 MAXIMUM OF   5000 CALLS OF SOLUTION ROUTINE
 MAXIMUM OF    500 INTERNAL ITERATIONS PER CALL TO SOLUTION ROUTINE
 MATRIX PRECONDITIONING TYPE :    1



                                    SOLUTION BY THE CONJUGATE-GRADIENT METHOD
                                   -------------------------------------------
                    MAXIMUM NUMBER OF CALLS TO PCG ROUTINE =     5000
                        MAXIMUM ITERATIONS PER CALL TO PCG =      500
                               MATRIX PRECONDITIONING TYPE =        1
        RELAXATION FACTOR (ONLY USED WITH PRECOND. TYPE 1) =    0.97000E+00
 PARAMETER OF POLYNOMIAL PRECOND. = 2 (2) OR IS CALCULATED :        0
                         HEAD CHANGE CRITERION FOR CLOSURE =    0.10000E-04
                     RESIDUAL CHANGE CRITERION FOR CLOSURE =    0.10000E-04
            PCG HEAD AND RESIDUAL CHANGE PRINTOUT INTERVAL =      999
     PRINTING FROM SOLVER IS LIMITED(1) OR SUPPRESSED (>1) =        3
                            STEADY-STATE DAMPING PARAMETER =    0.10000E-01
                               TRANSIENT DAMPING PARAMETER =    0.10000E-01
1
                            STRESS PERIOD NO.    1, LENGTH =   1.000000    
                            -----------------------------------------------

                              NUMBER OF TIME STEPS =     1

                               MULTIPLIER FOR DELT =     1.000

                            INITIAL TIME STEP SIZE =   1.000000    

 WELL NO.  LAYER   ROW   COL   STRESS RATE         
 --------------------------------------------------
      1      3     22     39      -1500.    
      2      1     13     15      -4500.    
      3      1     25     26       375.0    

      3 WELLS

 REACH NO.  LAYER   ROW   COL     STAGE      CONDUCTANCE     BOTTOM EL.         
 -------------------------------------------------------------------------------
      1      1     25      2       100.5           50.00           98.00    
      2      1     25      3       99.50           50.00           97.00    
      3      1     25      4       98.50           50.00           96.00    
      4      1     25      5       97.50           50.00           95.00    
      5      1     25      6       96.50           50.00           94.00    
      6      1     25      7       95.50           50.00           93.00    
      7      1     25      8       94.50           50.00           92.00    
      8      1     25      9       93.50           50.00           91.00    
      9      1     25     10       92.50           50.00           90.00    
     10      1     25     11       91.50           50.00           89.00    
     11      1     25     12       90.50           50.00           88.00    
     12      1     25     13       89.50           50.00           87.00    
     13      1     25     14       88.50           50.00           86.00    
     14      1     25     15       87.50           50.00           85.00    
     15      1     25     16       86.50           50.00           84.00    
     16      1     25     17       85.50           50.00           83.00    
     17      1     25     18       84.50           50.00           82.00    
     18      1     25     19       83.50           50.00           81.00    
     19      1     25     20       82.50           50.00           80.00    
     20      1     25     21       81.50           50.00           79.00    
     21      1     25     22       80.50           50.00           78.00    
     22      1     25     23       79.50           50.00           77.00    
     23      1     25     24       78.50           50.00           76.00    
     24      1     25     25       77.50           50.00           75.00    
     25      1     25     26       77.40           50.00           74.90    
     26      1     25     27       77.30           50.00           74.80    
     27      1     25     28       77.20           50.00           74.70    
     28      1     25     29       77.10           50.00           74.60    
     29      1     25     30       77.00           50.00           74.50    
     30      1     25     31       76.90           50.00           74.40    
     31      1     25     32       76.80           50.00           74.30    
     32      1     25     33       76.70           50.00           74.20    
     33      1     25     34       76.60           50.00           74.10    
     34      1     25     35       76.50           50.00           74.00    
     35      1     25     36       76.40           50.00           73.90    
     36      1     25     37       76.30           50.00           73.80    
     37      1     25     38       76.20           50.00           73.70    
     38      1     25     39       76.10           50.00           73.60    
     39      1     25     40       76.00           50.00           73.50    
     40      1     25     41       75.90           50.00           73.40    
     41      1     25     42       75.80           50.00           73.30    
     42      1     25     43       75.70           50.00           73.20    
     43      1     25     44       75.60           50.00           73.10    
     44      1     25     45       75.50           50.00           73.00    
     45      1     25     46       75.40           50.00           72.90    
     46      1     25     47       75.30           50.00           72.80    
     47      1     25     48       75.20           50.00           72.70    
     48      1     25     49       75.10           50.00           72.60    
     49      1     25     50       75.00           50.00           72.50    

     49 RIVER REACHES



                         ET SURFACE
 READING ON UNIT   22 WITH FORMAT: (50E15.6)           



            EVAPOTRANSPIRATION RATE
 READING ON UNIT   22 WITH FORMAT: (50E15.6)           

         EXTINCTION DEPTH =   10.0000    



                           RECHARGE
 READING ON UNIT   19 WITH FORMAT: (50E15.6)           
 
 SOLVING FOR HEAD 

 OUTPUT CONTROL FOR STRESS PERIOD    1   TIME STEP    1
    SAVE HEAD FOR ALL LAYERS
    SAVE DRAWDOWN FOR ALL LAYERS
    SAVE BUDGET
    PRINT HEAD FOR ALL LAYERS
    PRINT BUDGET
 UBDSV2 SAVING "   CONSTANT HEAD" ON UNIT  53 AT TIME STEP  1, STRESS PERIOD   1
 UBDSV1 SAVING "FLOW RIGHT FACE " ON UNIT  53 AT TIME STEP  1, STRESS PERIOD   1
 UBDSV1 SAVING "FLOW FRONT FACE " ON UNIT  53 AT TIME STEP  1, STRESS PERIOD   1
 UBDSV1 SAVING "FLOW LOWER FACE " ON UNIT  53 AT TIME STEP  1, STRESS PERIOD   1
 UBDSV4 SAVING "   RIVER LEAKAGE" ON UNIT  53 AT TIME STEP  1, STRESS PERIOD   1
 UBDSV3 SAVING "              ET" ON UNIT  53 AT TIME STEP  1, STRESS PERIOD   1
 UBDSV3 SAVING "        RECHARGE" ON UNIT  53 AT TIME STEP  1, STRESS PERIOD   1
1
              HEAD IN LAYER   1 AT END OF TIME STEP   1 IN STRESS PERIOD    1
  ---------------------------------------------------------------------------

            1           2           3           4           5           6           7           8           9          10
           11          12          13          14          15          16          17          18          19          20
           21          22          23          24          25          26          27          28          29          30
           31          32          33          34          35          36          37          38          39          40
           41          42          43          44          45          46          47          48          49          50
 ........................................................................................................................
   1    70.00       70.15       70.27       70.37       70.44       70.49       70.51       70.52       70.50       70.47    
        70.43       70.37       70.31       70.24       70.17       70.09       70.03       70.00       69.98       69.98    
        70.01       70.04       70.09       70.13       70.18       70.23       70.27       70.31       70.35       70.38    
        70.41       70.43       70.44       70.45       70.45       70.44       70.44       70.42       70.40       70.38    
        70.35       70.32       70.29       70.26       70.22       70.18       70.13       70.09       70.05       70.00    
   2    70.00       70.15       70.27       70.37       70.44       70.48       70.51       70.51       70.49       70.46    
        70.41       70.35       70.29       70.22       70.14       70.07       70.01       69.98       69.96       69.96    
        70.00       70.04       70.08       70.13       70.18       70.23       70.28       70.32       70.36       70.39    
        70.41       70.43       70.45       70.45       70.46       70.45       70.44       70.43       70.41       70.39    
        70.36       70.33       70.30       70.26       70.22       70.18       70.14       70.09       70.05       70.00    
   3    70.00       70.15       70.27       70.36       70.43       70.47       70.49       70.49       70.46       70.43    
        70.37       70.31       70.24       70.17       70.10       70.02       69.97       69.94       69.93       69.94    
        69.98       70.03       70.08       70.13       70.19       70.24       70.29       70.33       70.37       70.40    
        70.43       70.45       70.46       70.47       70.47       70.47       70.46       70.44       70.42       70.40    
        70.37       70.34       70.30       70.27       70.23       70.18       70.14       70.09       70.05       70.00    
   4    70.00       70.15       70.26       70.35       70.42       70.45       70.47       70.46       70.43       70.38    
        70.32       70.25       70.17       70.10       70.02       69.95       69.90       69.88       69.88       69.90    
        69.95       70.01       70.07       70.14       70.20       70.25       70.31       70.35       70.39       70.43    
        70.45       70.47       70.49       70.49       70.50       70.49       70.48       70.46       70.44       70.42    
        70.39       70.35       70.32       70.28       70.24       70.19       70.15       70.10       70.05       70.00    
   5    70.00       70.14       70.26       70.34       70.40       70.43       70.44       70.42       70.38       70.32    
        70.25       70.16       70.08       69.99       69.92       69.85       69.81       69.80       69.82       69.85    
        69.92       69.99       70.07       70.14       70.21       70.27       70.33       70.38       70.42       70.46    
        70.49       70.51       70.52       70.53       70.53       70.52       70.51       70.49       70.47       70.44    
        70.41       70.38       70.34       70.29       70.25       70.20       70.15       70.10       70.05       70.00    
   6    70.00       70.14       70.25       70.33       70.39       70.41       70.41       70.38       70.32       70.25    
        70.15       70.05       69.95       69.85       69.77       69.71       69.69       69.70       69.74       69.79    
        69.88       69.97       70.06       70.15       70.23       70.30       70.36       70.42       70.46       70.50    
        70.53       70.55       70.56       70.57       70.57       70.56       70.55       70.53       70.50       70.47    
        70.44       70.40       70.36       70.31       70.27       70.22       70.16       70.11       70.06       70.00    
   7    70.00       70.14       70.25       70.32       70.37       70.39       70.37       70.33       70.26       70.16    
        70.04       69.91       69.79       69.67       69.59       69.53       69.53       69.57       69.64       69.72    
        69.84       69.96       70.07       70.17       70.26       70.34       70.41       70.47       70.52       70.56    
        70.58       70.61       70.62       70.62       70.62       70.61       70.59       70.57       70.54       70.51    
        70.47       70.43       70.39       70.34       70.29       70.23       70.18       70.12       70.06       70.00    
   8    70.00       70.14       70.24       70.32       70.36       70.37       70.34       70.28       70.19       70.06    
        69.91       69.75       69.58       69.43       69.34       69.30       69.33       69.42       69.53       69.65    
        69.80       69.94       70.08       70.19       70.30       70.39       70.46       70.53       70.58       70.62    
        70.65       70.67       70.68       70.69       70.68       70.67       70.65       70.63       70.59       70.56    
        70.52       70.47       70.42       70.37       70.31       70.25       70.19       70.13       70.07       70.00    
   9    70.00       70.14       70.24       70.31       70.35       70.35       70.31       70.24       70.12       69.96    
        69.77       69.55       69.32       69.12       69.00       68.99       69.08       69.23       69.41       69.58    
        69.77       69.94       70.10       70.23       70.35       70.45       70.53       70.60       70.66       70.70    
        70.73       70.75       70.76       70.76       70.75       70.74       70.72       70.69       70.65       70.61    
        70.57       70.52       70.46       70.41       70.34       70.28       70.21       70.14       70.07       70.00    
  10    70.00       70.14       70.24       70.31       70.35       70.35       70.30       70.21       70.07       69.87    
        69.62       69.33       69.00       68.69       68.51       68.57       68.78       69.03       69.29       69.52    
        69.76       69.97       70.14       70.30       70.43       70.53       70.62       70.69       70.75       70.79    
        70.82       70.84       70.85       70.85       70.84       70.82       70.79       70.76       70.72       70.68    
        70.63       70.57       70.51       70.45       70.38       70.31       70.23       70.16       70.08       70.00    
  11    70.00       70.14       70.25       70.32       70.36       70.35       70.30       70.20       70.04       69.81    
        69.50       69.10       68.62       68.11       67.76       67.99       68.42       68.83       69.19       69.48    
        69.77       70.01       70.22       70.38       70.52       70.64       70.73       70.80       70.86       70.90    
        70.93       70.95       70.95       70.95       70.93       70.91       70.88       70.84       70.80       70.75    
        70.69       70.63       70.57       70.50       70.42       70.34       70.26       70.17       70.09       70.00    
  12    70.00       70.15       70.26       70.34       70.38       70.38       70.33       70.22       70.04       69.79    
        69.43       68.93       68.25       67.33       66.37       67.22       68.06       68.69       69.15       69.51    
        69.84       70.10       70.32       70.50       70.65       70.76       70.86       70.93       70.99       71.03    
        71.06       71.07       71.07       71.06       71.04       71.02       70.98       70.94       70.89       70.83    
        70.77       70.70       70.63       70.55       70.47       70.38       70.29       70.20       70.10       70.00    
  13    70.00       70.16       70.28       70.37       70.42       70.43       70.38       70.28       70.10       69.84    
        69.46       68.91       68.06       66.55       63.02       66.44       67.89       68.70       69.23       69.61    
        69.96       70.24       70.46       70.65       70.80       70.92       71.01       71.09       71.14       71.18    
        71.20       71.21       71.21       71.19       71.17       71.14       71.10       71.05       70.99       70.93    
        70.86       70.79       70.70       70.62       70.52       70.43       70.32       70.22       70.11       70.00    
  14    70.00       70.17       70.31       70.41       70.48       70.50       70.46       70.38       70.22       69.98    
        69.64       69.16       68.49       67.60       66.65       67.51       68.35       68.98       69.45       69.80    
        70.15       70.42       70.65       70.83       70.98       71.10       71.19       71.26       71.31       71.35    
        71.36       71.37       71.36       71.34       71.31       71.27       71.22       71.17       71.11       71.04    
        70.96       70.88       70.79       70.69       70.59       70.48       70.37       70.25       70.12       70.00    
  15    70.00       70.19       70.35       70.47       70.55       70.59       70.58       70.51       70.39       70.19    
        69.92       69.56       69.11       68.63       68.31       68.56       69.00       69.42       69.79       70.08    
        70.40       70.66       70.88       71.05       71.19       71.31       71.40       71.46       71.51       71.54    
        71.55       71.55       71.53       71.50       71.47       71.42       71.37       71.31       71.24       71.16    
        71.08       70.99       70.89       70.78       70.67       70.54       70.41       70.28       70.14       70.00    
  16    70.00       70.21       70.39       70.53       70.64       70.70       70.71       70.68       70.60       70.46    
        70.26       70.01       69.73       69.47       69.33       69.41       69.65       69.92       70.19       70.41    
        70.70       70.94       71.14       71.31       71.44       71.55       71.63       71.69       71.73       71.75    
        71.75       71.74       71.72       71.69       71.64       71.59       71.53       71.46       71.39       71.30    
        71.21       71.11       71.00       70.88       70.75       70.62       70.47       70.32       70.16       70.00    
  17    70.00       70.24       70.44       70.61       70.74       70.83       70.87       70.87       70.83       70.74    
        70.62       70.46       70.29       70.15       70.08       70.11       70.25       70.43       70.62       70.79    
        71.04       71.26       71.44       71.59       71.72       71.81       71.89       71.94       71.97       71.98    
        71.98       71.96       71.93       71.89       71.84       71.78       71.71       71.64       71.55       71.46    
        71.36       71.25       71.13       71.00       70.86       70.70       70.54       70.37       70.19       70.00    
  18    70.00       70.26       70.49       70.69       70.85       70.97       71.04       71.08       71.08       71.04    
        70.97       70.89       70.79       70.72       70.69       70.71       70.80       70.93       71.06       71.19    
        71.41       71.60       71.77       71.91       72.02       72.11       72.18       72.22       72.24       72.24    
        72.23       72.20       72.16       72.11       72.05       71.99       71.91       71.83       71.74       71.64    
        71.53       71.41       71.28       71.13       70.98       70.81       70.62       70.42       70.21       70.00    
  19    70.00       70.29       70.56       70.78       70.97       71.12       71.23       71.30       71.34       71.34    
        71.32       71.29       71.25       71.21       71.21       71.23       71.30       71.41       71.52       71.61    
        71.81       71.98       72.12       72.25       72.36       72.44       72.49       72.52       72.53       72.52    
        72.50       72.46       72.42       72.36       72.29       72.22       72.13       72.04       71.95       71.84    
        71.72       71.59       71.45       71.29       71.12       70.93       70.72       70.49       70.25       70.00    
  20    70.00       70.33       70.63       70.88       71.10       71.28       71.42       71.53       71.60       71.64    
        71.66       71.66       71.66       71.66       71.67       71.70       71.77       71.88       72.01       72.07    
        72.22       72.37       72.50       72.62       72.72       72.79       72.84       72.86       72.85       72.83    
        72.79       72.75       72.69       72.63       72.55       72.47       72.38       72.28       72.18       72.07    
        71.94       71.80       71.65       71.48       71.29       71.07       70.84       70.57       70.29       70.00    
  21    70.00       70.37       70.70       70.99       71.25       71.46       71.63       71.76       71.86       71.93    
        71.98       72.01       72.04       72.06       72.08       72.11       72.19       72.33       72.57       72.61    
        72.65       72.76       72.89       73.02       73.12       73.19       73.22       73.22       73.20       73.16    
        73.11       73.06       72.99       72.92       72.84       72.75       72.65       72.55       72.44       72.32    
        72.19       72.05       71.88       71.70       71.49       71.25       70.98       70.68       70.35       70.00    
  22    70.00       70.42       70.79       71.12       71.40       71.64       71.84       72.00       72.12       72.22    
        72.29       72.35       72.39       72.42       72.45       72.49       72.56       72.69       72.91       72.93    
        73.00       73.14       73.29       73.43       73.55       73.63       73.64       73.62       73.58       73.52    
        73.46       73.39       73.32       73.24       73.15       73.06       72.96       72.85       72.73       72.61    
        72.48       72.32       72.15       71.96       71.73       71.47       71.17       70.82       70.43       70.00    
  23    70.00       70.47       70.89       71.26       71.57       71.83       72.05       72.24       72.38       72.50    
        72.59       72.66       72.72       72.76       72.79       72.82       72.87       72.94       73.03       73.04    
        73.29       73.51       73.71       73.88       74.04       74.14       74.12       74.06       73.98       73.91    
        73.83       73.75       73.67       73.58       73.49       73.39       73.29       73.18       73.06       72.94    
        72.80       72.64       72.47       72.27       72.03       71.74       71.41       71.01       70.54       70.00    
  24    70.00       70.55       71.02       71.42       71.76       72.04       72.28       72.48       72.65       72.78    
        72.88       72.97       73.03       73.07       73.10       73.12       73.15       73.19       73.23       73.23    
        73.61       73.90       74.15       74.37       74.59       74.78       74.65       74.52       74.41       74.31    
        74.22       74.14       74.05       73.96       73.86       73.76       73.65       73.54       73.43       73.30    
        73.16       73.01       72.83       72.63       72.38       72.08       71.72       71.27       70.71       70.00    
  25    70.00       70.68       71.19       71.61       71.97       72.27       72.52       72.74       72.91       73.06    
        73.17       73.26       73.33       73.38       73.40       73.41       73.43       73.45       73.46       73.45    
        74.00       74.35       74.62       74.87       75.18       75.76       75.21       74.98       74.84       74.74    
        74.64       74.55       74.45       74.36       74.26       74.16       74.06       73.95       73.83       73.70    
        73.57       73.42       73.25       73.05       72.80       72.50       72.13       71.66       71.01       70.00    
  26    70.00       70.58       71.07       71.49       71.86       72.17       72.43       72.65       72.84       72.99    
        73.11       73.21       73.28       73.33       73.35       73.35       73.36       73.36       73.36       73.35    
        73.73       74.04       74.29       74.51       74.72       74.91       74.78       74.64       74.52       74.42    
        74.32       74.23       74.13       74.04       73.94       73.83       73.72       73.61       73.49       73.35    
        73.21       73.05       72.87       72.66       72.41       72.10       71.73       71.28       70.71       70.00    
  27    70.00       70.52       70.99       71.41       71.77       72.08       72.35       72.58       72.77       72.93    
        73.06       73.16       73.23       73.28       73.30       73.29       73.29       73.29       73.28       73.26    
        73.54       73.79       74.00       74.17       74.32       74.41       74.37       74.30       74.21       74.12    
        74.03       73.94       73.85       73.75       73.65       73.54       73.43       73.31       73.18       73.05    
        72.90       72.73       72.54       72.33       72.08       71.78       71.44       71.03       70.55       70.00    
  28    70.00       70.49       70.94       71.34       71.70       72.01       72.28       72.51       72.71       72.87    
        73.00       73.10       73.18       73.22       73.24       73.23       73.22       73.21       73.20       73.18    
        73.39       73.58       73.75       73.88       73.98       74.04       74.03       73.99       73.92       73.84    
        73.76       73.68       73.58       73.49       73.39       73.28       73.17       73.04       72.92       72.78    
        72.62       72.46       72.27       72.06       71.81       71.53       71.21       70.85       70.44       70.00    
  29    70.00       70.47       70.90       71.29       71.64       71.95       72.22       72.45       72.65       72.81    
        72.95       73.05       73.12       73.17       73.19       73.17       73.16       73.14       73.12       73.10    
        73.26       73.41       73.54       73.64       73.71       73.75       73.75       73.72       73.66       73.60    
        73.52       73.44       73.35       73.25       73.15       73.05       72.93       72.81       72.68       72.54    
        72.39       72.22       72.04       71.83       71.60       71.34       71.04       70.72       70.37       70.00    
  30    70.00       70.45       70.87       71.25       71.59       71.90       72.17       72.40       72.60       72.76    
        72.90       73.00       73.07       73.12       73.13       73.12       73.10       73.08       73.05       73.02    
        73.15       73.26       73.36       73.44       73.49       73.51       73.51       73.48       73.43       73.37    
        73.30       73.23       73.14       73.05       72.95       72.84       72.73       72.60       72.48       72.34    
        72.18       72.02       71.84       71.64       71.42       71.18       70.91       70.63       70.32       70.00    
  31    70.00       70.44       70.85       71.22       71.56       71.86       72.12       72.35       72.55       72.72    
        72.85       72.95       73.02       73.07       73.08       73.06       73.04       73.02       72.99       72.96    
        73.05       73.14       73.21       73.26       73.30       73.31       73.30       73.28       73.23       73.18    
        73.11       73.03       72.95       72.86       72.76       72.66       72.54       72.42       72.29       72.16    
        72.01       71.85       71.67       71.48       71.28       71.05       70.81       70.55       70.28       70.00    
  32    70.00       70.43       70.83       71.19       71.52       71.82       72.08       72.31       72.51       72.67    
        72.80       72.90       72.98       73.02       73.03       73.01       72.98       72.96       72.93       72.89    
        72.96       73.03       73.08       73.12       73.14       73.14       73.13       73.10       73.06       73.00    
        72.94       72.86       72.78       72.69       72.60       72.49       72.38       72.26       72.14       72.00    
        71.86       71.70       71.53       71.35       71.16       70.95       70.73       70.49       70.25       70.00    
  33    70.00       70.42       70.81       71.17       71.50       71.79       72.05       72.27       72.47       72.63    
        72.76       72.86       72.93       72.97       72.98       72.96       72.93       72.90       72.87       72.84    
        72.89       72.93       72.97       72.99       73.00       73.00       72.98       72.95       72.90       72.85    
        72.79       72.71       72.63       72.54       72.45       72.35       72.24       72.12       72.00       71.87    
        71.73       71.58       71.41       71.24       71.06       70.87       70.66       70.45       70.23       70.00    
  34    70.00       70.42       70.80       71.15       71.47       71.76       72.02       72.24       72.43       72.59    
        72.72       72.82       72.89       72.93       72.93       72.91       72.88       72.85       72.82       72.78    
        72.82       72.85       72.87       72.88       72.88       72.87       72.85       72.81       72.77       72.71    
        72.65       72.58       72.50       72.41       72.32       72.22       72.11       72.00       71.88       71.75    
        71.61       71.47       71.31       71.15       70.98       70.80       70.61       70.41       70.21       70.00    
  35    70.00       70.41       70.79       71.14       71.45       71.74       71.99       72.21       72.40       72.56    
        72.69       72.79       72.85       72.89       72.89       72.87       72.84       72.81       72.77       72.73    
        72.75       72.77       72.78       72.78       72.78       72.76       72.73       72.69       72.65       72.59    
        72.53       72.46       72.38       72.29       72.20       72.10       72.00       71.89       71.77       71.64    
        71.51       71.37       71.23       71.07       70.91       70.74       70.56       70.38       70.19       70.00    
  36    70.00       70.41       70.78       71.12       71.44       71.72       71.97       72.19       72.37       72.53    
        72.66       72.75       72.82       72.85       72.85       72.83       72.80       72.76       72.73       72.69    
        72.70       72.71       72.71       72.70       72.68       72.66       72.63       72.59       72.54       72.49    
        72.42       72.35       72.27       72.19       72.10       72.00       71.90       71.79       71.68       71.55    
        71.43       71.29       71.15       71.00       70.85       70.69       70.52       70.35       70.18       70.00    
  37    70.00       70.40       70.77       71.11       71.42       71.70       71.95       72.16       72.35       72.50    
        72.63       72.72       72.78       72.82       72.82       72.79       72.76       72.72       72.69       72.65    
        72.65       72.65       72.64       72.63       72.61       72.58       72.54       72.50       72.45       72.39    
        72.33       72.26       72.18       72.10       72.01       71.91       71.81       71.70       71.59       71.47    
        71.35       71.22       71.09       70.94       70.80       70.65       70.49       70.33       70.17       70.00    
  38    70.00       70.40       70.77       71.10       71.41       71.68       71.93       72.14       72.32       72.48    
        72.60       72.69       72.75       72.79       72.79       72.76       72.72       72.69       72.65       72.61    
        72.60       72.59       72.58       72.56       72.54       72.50       72.47       72.42       72.37       72.31    
        72.24       72.17       72.10       72.01       71.93       71.83       71.73       71.63       71.52       71.41    
        71.29       71.16       71.03       70.89       70.75       70.61       70.46       70.31       70.16       70.00    
  39    70.00       70.40       70.76       71.09       71.40       71.67       71.91       72.12       72.30       72.45    
        72.58       72.67       72.73       72.76       72.76       72.73       72.69       72.66       72.62       72.57    
        72.56       72.55       72.53       72.50       72.47       72.44       72.40       72.35       72.30       72.24    
        72.17       72.10       72.02       71.94       71.86       71.76       71.67       71.56       71.46       71.34    
        71.23       71.11       70.98       70.85       70.72       70.58       70.44       70.29       70.15       70.00    
  40    70.00       70.39       70.75       71.09       71.39       71.66       71.90       72.11       72.29       72.43    
        72.55       72.64       72.70       72.73       72.73       72.70       72.66       72.63       72.59       72.54    
        72.53       72.51       72.48       72.45       72.42       72.38       72.34       72.29       72.23       72.17    
        72.11       72.04       71.96       71.88       71.79       71.70       71.61       71.51       71.40       71.29    
        71.18       71.06       70.94       70.81       70.69       70.55       70.42       70.28       70.14       70.00    
  41    70.00       70.39       70.75       71.08       71.38       71.65       71.88       72.09       72.27       72.42    
        72.53       72.62       72.68       72.71       72.71       72.67       72.64       72.60       72.56       72.52    
        72.50       72.47       72.44       72.41       72.37       72.33       72.29       72.24       72.18       72.12    
        72.05       71.98       71.90       71.82       71.74       71.65       71.56       71.46       71.35       71.25    
        71.14       71.02       70.90       70.78       70.66       70.53       70.40       70.27       70.14       70.00    
  42    70.00       70.39       70.75       71.07       71.37       71.64       71.87       72.08       72.25       72.40    
        72.52       72.60       72.66       72.69       72.69       72.65       72.62       72.58       72.54       72.49    
        72.47       72.44       72.41       72.37       72.33       72.29       72.24       72.19       72.13       72.07    
        72.00       71.93       71.86       71.78       71.69       71.60       71.51       71.41       71.31       71.21    
        71.10       70.99       70.87       70.76       70.64       70.51       70.39       70.26       70.13       70.00    
  43    70.00       70.39       70.74       71.07       71.36       71.63       71.86       72.07       72.24       72.39    
        72.50       72.59       72.64       72.67       72.67       72.63       72.60       72.56       72.51       72.47    
        72.44       72.41       72.38       72.34       72.30       72.25       72.20       72.15       72.09       72.03    
        71.96       71.89       71.82       71.74       71.65       71.56       71.47       71.38       71.28       71.18    
        71.07       70.96       70.85       70.73       70.62       70.50       70.37       70.25       70.13       70.00    
  44    70.00       70.38       70.74       71.06       71.36       71.62       71.85       72.06       72.23       72.38    
        72.49       72.57       72.63       72.66       72.65       72.62       72.58       72.54       72.50       72.45    
        72.42       72.39       72.35       72.31       72.27       72.22       72.17       72.12       72.06       71.99    
        71.93       71.86       71.78       71.70       71.62       71.53       71.44       71.35       71.25       71.15    
        71.04       70.94       70.83       70.71       70.60       70.48       70.36       70.24       70.12       70.00    
  45    70.00       70.38       70.74       71.06       71.35       71.61       71.85       72.05       72.22       72.37    
        72.48       72.56       72.62       72.64       72.64       72.60       72.56       72.52       72.48       72.44    
        72.40       72.37       72.33       72.29       72.25       72.20       72.14       72.09       72.03       71.97    
        71.90       71.83       71.75       71.67       71.59       71.50       71.41       71.32       71.22       71.12    
        71.02       70.92       70.81       70.70       70.59       70.47       70.36       70.24       70.12       70.00    
  46    70.00       70.38       70.73       71.06       71.35       71.61       71.84       72.04       72.21       72.36    
        72.47       72.55       72.61       72.63       72.63       72.59       72.55       72.51       72.47       72.42    
        72.39       72.35       72.31       72.27       72.23       72.18       72.12       72.07       72.01       71.94    
        71.87       71.80       71.73       71.65       71.57       71.48       71.39       71.30       71.20       71.11    
        71.00       70.90       70.79       70.69       70.58       70.46       70.35       70.23       70.12       70.00    
  47    70.00       70.38       70.73       71.05       71.34       71.60       71.84       72.04       72.21       72.35    
        72.46       72.55       72.60       72.62       72.62       72.58       72.54       72.50       72.46       72.41    
        72.38       72.34       72.30       72.26       72.21       72.16       72.11       72.05       71.99       71.92    
        71.86       71.78       71.71       71.63       71.55       71.46       71.37       71.28       71.19       71.09    
        70.99       70.89       70.78       70.68       70.57       70.46       70.34       70.23       70.12       70.00    
  48    70.00       70.38       70.73       71.05       71.34       71.60       71.83       72.03       72.20       72.35    
        72.46       72.54       72.59       72.62       72.61       72.57       72.54       72.49       72.45       72.40    
        72.37       72.33       72.29       72.25       72.20       72.15       72.09       72.04       71.97       71.91    
        71.84       71.77       71.69       71.62       71.53       71.45       71.36       71.27       71.18       71.08    
        70.98       70.88       70.78       70.67       70.56       70.45       70.34       70.23       70.11       70.00    
  49    70.00       70.38       70.73       71.05       71.34       71.60       71.83       72.03       72.20       72.34    
        72.45       72.54       72.59       72.61       72.61       72.57       72.53       72.49       72.45       72.40    
        72.36       72.32       72.28       72.24       72.19       72.14       72.08       72.03       71.96       71.90    
        71.83       71.76       71.69       71.61       71.53       71.44       71.35       71.26       71.17       71.07    
        70.97       70.87       70.77       70.66       70.56       70.45       70.34       70.23       70.11       70.00    
  50    70.00       70.38       70.73       71.05       71.34       71.60       71.83       72.03       72.20       72.34    
        72.45       72.53       72.59       72.61       72.60       72.57       72.53       72.49       72.44       72.40    
        72.36       72.32       72.28       72.23       72.19       72.13       72.08       72.02       71.96       71.90    
        71.83       71.76       71.68       71.60       71.52       71.44       71.35       71.26       71.17       71.07    
        70.97       70.87       70.77       70.66       70.55       70.45       70.34       70.23       70.11       70.00    
1
              HEAD IN LAYER   2 AT END OF TIME STEP   1 IN STRESS PERIOD    1
  ---------------------------------------------------------------------------

            1           2           3           4           5           6           7           8           9          10
           11          12          13          14          15          16          17          18          19          20
           21          22          23          24          25          26          27          28          29          30
           31          32          33          34          35          36          37          38          39          40
           41          42          43          44          45          46          47          48          49          50
 ........................................................................................................................
   1    70.00       70.15       70.27       70.37       70.44       70.49       70.51       70.52       70.50       70.47    
        70.43       70.37       70.31       70.24       70.17       70.09       70.03       70.00       69.98       69.98    
        69.99       70.01       70.04       70.08       70.11       70.15       70.18       70.21       70.23       70.26    
        70.28       70.29       70.30       70.30       70.30       70.30       70.29       70.28       70.27       70.25    
        70.23       70.21       70.19       70.17       70.14       70.11       70.09       70.06       70.03       70.00    
   2    70.00       70.15       70.27       70.37       70.44       70.48       70.51       70.51       70.49       70.46    
        70.41       70.35       70.29       70.22       70.14       70.07       70.01       69.98       69.96       69.96    
        69.98       70.01       70.04       70.07       70.11       70.15       70.18       70.21       70.24       70.26    
        70.28       70.29       70.30       70.31       70.31       70.30       70.30       70.29       70.27       70.25    
        70.24       70.21       70.19       70.17       70.14       70.11       70.09       70.06       70.03       70.00    
   3    70.00       70.15       70.27       70.36       70.43       70.47       70.49       70.49       70.46       70.43    
        70.37       70.31       70.24       70.17       70.10       70.02       69.97       69.94       69.93       69.94    
        69.96       69.99       70.03       70.07       70.11       70.15       70.19       70.22       70.25       70.27    
        70.29       70.30       70.31       70.32       70.32       70.31       70.30       70.29       70.28       70.26    
        70.24       70.22       70.20       70.17       70.14       70.12       70.09       70.06       70.03       70.00    
   4    70.00       70.15       70.26       70.35       70.42       70.45       70.47       70.46       70.43       70.38    
        70.32       70.25       70.17       70.10       70.02       69.95       69.90       69.88       69.88       69.90    
        69.94       69.98       70.02       70.07       70.12       70.16       70.20       70.23       70.26       70.29    
        70.30       70.32       70.33       70.33       70.33       70.32       70.31       70.30       70.29       70.27    
        70.25       70.23       70.20       70.18       70.15       70.12       70.09       70.06       70.03       70.00    
   5    70.00       70.14       70.26       70.34       70.40       70.43       70.44       70.42       70.38       70.32    
        70.25       70.16       70.08       69.99       69.92       69.85       69.81       69.80       69.82       69.85    
        69.90       69.96       70.01       70.07       70.12       70.17       70.21       70.25       70.28       70.31    
        70.33       70.34       70.35       70.35       70.35       70.34       70.33       70.32       70.30       70.28    
        70.26       70.23       70.21       70.18       70.15       70.12       70.09       70.06       70.03       70.00    
   6    70.00       70.14       70.25       70.33       70.39       70.41       70.41       70.38       70.32       70.25    
        70.15       70.05       69.95       69.85       69.77       69.71       69.69       69.70       69.74       69.79    
        69.86       69.93       70.00       70.07       70.13       70.19       70.23       70.27       70.31       70.33    
        70.35       70.37       70.37       70.37       70.37       70.36       70.35       70.33       70.31       70.29    
        70.27       70.25       70.22       70.19       70.16       70.13       70.10       70.07       70.03       70.00    
   7    70.00       70.14       70.25       70.32       70.37       70.39       70.37       70.33       70.26       70.16    
        70.04       69.91       69.79       69.67       69.59       69.53       69.53       69.57       69.64       69.72    
        69.82       69.91       70.00       70.08       70.15       70.21       70.26       70.31       70.34       70.37    
        70.39       70.40       70.40       70.40       70.40       70.39       70.37       70.35       70.33       70.31    
        70.29       70.26       70.23       70.20       70.17       70.14       70.10       70.07       70.03       70.00    
   8    70.00       70.14       70.24       70.32       70.36       70.37       70.34       70.28       70.19       70.06    
        69.91       69.75       69.58       69.43       69.34       69.30       69.33       69.42       69.53       69.65    
        69.77       69.89       70.00       70.09       70.17       70.24       70.30       70.35       70.38       70.41    
        70.43       70.44       70.44       70.44       70.43       70.42       70.40       70.38       70.36       70.33    
        70.30       70.27       70.24       70.21       70.18       70.14       70.11       70.07       70.04       70.00    
   9    70.00       70.14       70.24       70.31       70.35       70.35       70.31       70.24       70.12       69.96    
        69.77       69.55       69.32       69.12       69.00       68.99       69.08       69.23       69.41       69.58    
        69.74       69.89       70.01       70.12       70.21       70.29       70.35       70.40       70.44       70.46    
        70.48       70.49       70.49       70.48       70.47       70.45       70.43       70.41       70.38       70.35    
        70.32       70.29       70.26       70.22       70.19       70.15       70.11       70.08       70.04       70.00    
  10    70.00       70.14       70.24       70.31       70.35       70.35       70.30       70.21       70.07       69.87    
        69.62       69.33       69.00       68.69       68.51       68.57       68.78       69.03       69.29       69.52    
        69.72       69.90       70.04       70.17       70.27       70.35       70.41       70.46       70.50       70.52    
        70.54       70.54       70.54       70.53       70.51       70.49       70.46       70.44       70.41       70.38    
        70.34       70.31       70.27       70.24       70.20       70.16       70.12       70.08       70.04       70.00    
  11    70.00       70.14       70.25       70.32       70.36       70.35       70.30       70.20       70.04       69.81    
        69.50       69.10       68.62       68.11       67.76       67.99       68.42       68.83       69.19       69.48    
        69.73       69.93       70.10       70.23       70.34       70.43       70.49       70.54       70.57       70.60    
        70.60       70.60       70.60       70.58       70.56       70.53       70.50       70.47       70.44       70.40    
        70.37       70.33       70.29       70.25       70.21       70.17       70.13       70.09       70.04       70.00    
  12    70.00       70.15       70.26       70.34       70.38       70.38       70.33       70.22       70.04       69.79    
        69.43       68.93       68.25       67.33       66.37       67.22       68.06       68.69       69.15       69.51    
        69.79       70.01       70.19       70.33       70.44       70.52       70.59       70.63       70.66       70.68    
        70.68       70.68       70.66       70.64       70.61       70.58       70.55       70.51       70.47       70.43    
        70.39       70.35       70.31       70.27       70.23       70.18       70.14       70.09       70.05       70.00    
  13    70.00       70.16       70.28       70.37       70.42       70.43       70.38       70.28       70.10       69.84    
        69.46       68.91       68.06       66.55       63.02       66.44       67.89       68.70       69.23       69.61    
        69.90       70.13       70.31       70.45       70.56       70.64       70.70       70.74       70.76       70.77    
        70.77       70.76       70.74       70.71       70.67       70.63       70.59       70.55       70.50       70.46    
        70.42       70.38       70.33       70.29       70.25       70.20       70.15       70.10       70.05       70.00    
  14    70.00       70.17       70.31       70.41       70.48       70.50       70.46       70.38       70.22       69.98    
        69.64       69.16       68.49       67.60       66.65       67.51       68.35       68.98       69.45       69.80    
        70.08       70.30       70.47       70.60       70.70       70.78       70.83       70.86       70.88       70.88    
        70.87       70.85       70.82       70.78       70.74       70.69       70.64       70.59       70.54       70.49    
        70.45       70.40       70.36       70.31       70.26       70.22       70.16       70.11       70.06       70.00    
  15    70.00       70.19       70.35       70.47       70.55       70.59       70.58       70.51       70.39       70.19    
        69.92       69.56       69.11       68.63       68.31       68.56       69.00       69.42       69.79       70.08    
        70.32       70.52       70.67       70.79       70.88       70.94       70.98       71.01       71.01       71.00    
        70.98       70.95       70.91       70.86       70.81       70.75       70.69       70.63       70.58       70.53    
        70.48       70.43       70.38       70.34       70.29       70.23       70.18       70.12       70.06       70.00    
  16    70.00       70.21       70.39       70.53       70.64       70.70       70.71       70.68       70.60       70.46    
        70.26       70.01       69.73       69.47       69.33       69.41       69.65       69.92       70.19       70.41    
        70.61       70.77       70.90       71.00       71.07       71.12       71.15       71.16       71.16       71.14    
        71.11       71.06       71.01       70.95       70.88       70.81       70.74       70.68       70.61       70.56    
        70.51       70.46       70.41       70.36       70.31       70.26       70.20       70.13       70.07       70.00    
  17    70.00       70.24       70.44       70.61       70.74       70.83       70.87       70.87       70.83       70.74    
        70.62       70.46       70.29       70.15       70.08       70.11       70.25       70.43       70.62       70.79    
        70.94       71.06       71.16       71.23       71.29       71.32       71.33       71.33       71.32       71.28    
        71.24       71.19       71.12       71.05       70.97       70.88       70.80       70.72       70.65       70.59    
        70.54       70.49       70.45       70.40       70.34       70.28       70.22       70.15       70.08       70.00    
  18    70.00       70.26       70.49       70.69       70.85       70.97       71.04       71.08       71.08       71.04    
        70.97       70.89       70.79       70.72       70.69       70.71       70.80       70.93       71.06       71.19    
        71.29       71.37       71.44       71.49       71.52       71.53       71.53       71.52       71.49       71.44    
        71.39       71.32       71.24       71.15       71.05       70.96       70.86       70.77       70.69       70.62    
        70.57       70.53       70.48       70.44       70.38       70.32       70.25       70.17       70.09       70.00    
  19    70.00       70.29       70.56       70.78       70.97       71.12       71.23       71.30       71.34       71.34    
        71.32       71.29       71.25       71.21       71.21       71.23       71.30       71.41       71.52       71.61    
        71.67       71.70       71.73       71.75       71.76       71.76       71.74       71.71       71.67       71.61    
        71.54       71.46       71.37       71.26       71.15       71.03       70.92       70.81       70.72       70.66    
        70.61       70.57       70.53       70.48       70.43       70.36       70.28       70.19       70.10       70.00    
  20    70.00       70.33       70.63       70.88       71.10       71.28       71.42       71.53       71.60       71.64    
        71.66       71.66       71.66       71.66       71.67       71.70       71.77       71.88       72.01       72.07    
        72.05       72.04       72.03       72.02       72.01       71.99       71.96       71.91       71.85       71.78    
        71.70       71.61       71.50       71.38       71.26       71.12       70.99       70.86       70.76       70.69    
        70.66       70.63       70.59       70.54       70.48       70.41       70.32       70.22       70.11       70.00    
  21    70.00       70.37       70.70       70.99       71.25       71.46       71.63       71.76       71.86       71.93    
        71.98       72.01       72.04       72.05       72.08       72.11       72.19       72.33       72.57       72.61    
        72.44       72.36       72.32       72.28       72.26       72.22       72.17       72.12       72.04       71.96    
        71.87       71.76       71.65       71.52       71.38       71.23       71.07       70.92       70.80       70.74    
        70.72       70.70       70.66       70.62       70.55       70.47       70.37       70.26       70.13       70.00    
  22    70.00       70.42       70.79       71.12       71.40       71.64       71.84       72.00       72.12       72.22    
        72.29       72.35       72.39       72.42       72.45       72.49       72.56       72.69       72.91       72.93    
        72.74       72.64       72.58       72.53       72.49       72.44       72.39       72.32       72.23       72.14    
        72.04       71.92       71.80       71.66       71.51       71.35       71.18       71.01       70.86       70.83    
        70.81       70.79       70.76       70.70       70.63       70.54       70.43       70.30       70.15       70.00    
  23    70.00       70.47       70.89       71.26       71.57       71.83       72.05       72.24       72.38       72.50    
        72.59       72.66       72.72       72.76       72.79       72.82       72.87       72.94       73.03       73.04    
        72.94       72.86       72.80       72.75       72.71       72.65       72.58       72.50       72.41       72.31    
        72.20       72.07       71.94       71.80       71.65       71.49       71.33       71.17       71.04       70.97    
        70.94       70.91       70.86       70.80       70.72       70.62       70.49       70.34       70.18       70.00    
  24    70.00       70.55       71.02       71.42       71.76       72.04       72.28       72.48       72.65       72.78    
        72.88       72.97       73.03       73.07       73.10       73.12       73.15       73.19       73.23       73.23    
        73.12       73.04       72.98       72.93       72.89       72.83       72.75       72.66       72.56       72.45    
        72.33       72.21       72.08       71.94       71.79       71.64       71.48       71.34       71.22       71.14    
        71.08       71.03       70.97       70.90       70.80       70.69       70.55       70.39       70.20       70.00    
  25    70.00       70.68       71.19       71.61       71.97       72.27       72.52       72.74       72.91       73.06    
        73.17       73.26       73.33       73.38       73.40       73.41       73.43       73.45       73.46       73.45    
        73.26       73.16       73.10       73.06       73.01       72.96       72.87       72.77       72.66       72.55    
        72.43       72.31       72.18       72.04       71.90       71.75       71.61       71.48       71.36       71.27    
        71.20       71.13       71.06       70.97       70.87       70.74       70.59       70.42       70.22       70.00    
  26    70.00       70.58       71.07       71.49       71.86       72.17       72.43       72.65       72.84       72.99    
        73.11       73.21       73.28       73.33       73.35       73.35       73.36       73.36       73.36       73.35    
        73.26       73.19       73.13       73.09       73.04       72.99       72.90       72.80       72.70       72.59    
        72.47       72.35       72.22       72.09       71.95       71.82       71.68       71.56       71.44       71.35    
        71.26       71.18       71.09       70.99       70.88       70.74       70.59       70.41       70.21       70.00    
  27    70.00       70.52       70.99       71.41       71.77       72.08       72.35       72.58       72.77       72.93    
        73.06       73.16       73.23       73.28       73.30       73.29       73.29       73.29       73.28       73.26    
        73.21       73.16       73.11       73.07       73.02       72.96       72.88       72.79       72.69       72.58    
        72.46       72.35       72.22       72.10       71.97       71.84       71.71       71.59       71.48       71.38    
        71.28       71.19       71.09       70.98       70.86       70.72       70.57       70.39       70.20       70.00    
  28    70.00       70.49       70.94       71.34       71.70       72.01       72.28       72.51       72.71       72.87    
        73.00       73.10       73.18       73.22       73.24       73.23       73.22       73.21       73.20       73.17    
        73.14       73.10       73.06       73.02       72.97       72.91       72.83       72.74       72.65       72.54    
        72.43       72.32       72.20       72.08       71.96       71.84       71.72       71.60       71.49       71.38    
        71.28       71.17       71.07       70.95       70.83       70.69       70.54       70.37       70.19       70.00    
  29    70.00       70.47       70.90       71.29       71.64       71.95       72.22       72.45       72.65       72.81    
        72.95       73.05       73.12       73.17       73.19       73.17       73.16       73.14       73.12       73.10    
        73.07       73.04       73.00       72.95       72.90       72.84       72.77       72.68       72.59       72.49    
        72.39       72.28       72.17       72.05       71.93       71.82       71.70       71.59       71.47       71.37    
        71.26       71.15       71.04       70.92       70.79       70.66       70.51       70.34       70.18       70.00    
  30    70.00       70.45       70.87       71.25       71.59       71.90       72.17       72.40       72.60       72.76    
        72.90       73.00       73.07       73.12       73.13       73.12       73.10       73.08       73.05       73.02    
        73.00       72.97       72.93       72.88       72.83       72.77       72.70       72.62       72.53       72.44    
        72.34       72.23       72.13       72.01       71.90       71.79       71.68       71.56       71.45       71.34    
        71.23       71.12       71.01       70.89       70.76       70.62       70.48       70.32       70.16       70.00    
  31    70.00       70.44       70.85       71.22       71.56       71.86       72.12       72.35       72.55       72.71    
        72.85       72.95       73.02       73.07       73.08       73.06       73.04       73.02       72.99       72.96    
        72.93       72.90       72.86       72.81       72.76       72.70       72.63       72.55       72.47       72.38    
        72.28       72.18       72.08       71.97       71.86       71.75       71.64       71.53       71.42       71.31    
        71.20       71.09       70.97       70.85       70.73       70.59       70.45       70.31       70.15       70.00    
  32    70.00       70.43       70.83       71.19       71.52       71.82       72.08       72.31       72.51       72.67    
        72.80       72.90       72.98       73.02       73.03       73.01       72.98       72.96       72.93       72.89    
        72.86       72.83       72.79       72.74       72.69       72.63       72.56       72.49       72.41       72.32    
        72.23       72.13       72.03       71.93       71.82       71.72       71.61       71.50       71.39       71.28    
        71.17       71.06       70.94       70.82       70.70       70.57       70.43       70.29       70.15       70.00    
  33    70.00       70.42       70.81       71.17       71.50       71.79       72.05       72.27       72.47       72.63    
        72.76       72.86       72.93       72.97       72.98       72.96       72.93       72.90       72.87       72.84    
        72.80       72.77       72.73       72.68       72.63       72.57       72.50       72.43       72.35       72.26    
        72.17       72.08       71.98       71.88       71.78       71.68       71.57       71.47       71.36       71.25    
        71.14       71.03       70.91       70.79       70.67       70.54       70.41       70.28       70.14       70.00    
  34    70.00       70.42       70.80       71.15       71.47       71.76       72.02       72.24       72.43       72.59    
        72.72       72.82       72.89       72.93       72.93       72.91       72.88       72.85       72.82       72.78    
        72.75       72.71       72.67       72.62       72.56       72.50       72.44       72.37       72.29       72.21    
        72.12       72.03       71.94       71.84       71.74       71.64       71.54       71.43       71.33       71.22    
        71.11       71.00       70.89       70.77       70.65       70.52       70.40       70.27       70.13       70.00    
  35    70.00       70.41       70.79       71.14       71.45       71.74       71.99       72.21       72.40       72.56    
        72.69       72.79       72.85       72.89       72.89       72.87       72.84       72.81       72.77       72.73    
        72.70       72.66       72.61       72.56       72.51       72.45       72.38       72.31       72.24       72.16    
        72.07       71.99       71.89       71.80       71.70       71.61       71.50       71.40       71.30       71.19    
        71.08       70.97       70.86       70.75       70.63       70.51       70.38       70.26       70.13       70.00    
  36    70.00       70.41       70.78       71.12       71.44       71.72       71.97       72.19       72.37       72.53    
        72.66       72.75       72.82       72.85       72.85       72.83       72.80       72.76       72.73       72.69    
        72.65       72.61       72.56       72.51       72.46       72.40       72.33       72.26       72.19       72.11    
        72.03       71.94       71.85       71.76       71.67       71.57       71.47       71.37       71.27       71.16    
        71.06       70.95       70.84       70.72       70.61       70.49       70.37       70.25       70.12       70.00    
  37    70.00       70.40       70.77       71.11       71.42       71.70       71.95       72.16       72.35       72.50    
        72.63       72.72       72.78       72.82       72.82       72.79       72.76       72.72       72.69       72.65    
        72.61       72.56       72.52       72.47       72.41       72.35       72.29       72.22       72.15       72.07    
        71.99       71.90       71.82       71.73       71.63       71.54       71.44       71.34       71.24       71.14    
        71.03       70.93       70.82       70.71       70.59       70.48       70.36       70.24       70.12       70.00    
  38    70.00       70.40       70.77       71.10       71.41       71.68       71.93       72.14       72.32       72.48    
        72.60       72.69       72.75       72.79       72.79       72.76       72.72       72.69       72.65       72.61    
        72.57       72.52       72.48       72.42       72.37       72.31       72.24       72.18       72.10       72.03    
        71.95       71.87       71.78       71.69       71.60       71.51       71.41       71.32       71.22       71.11    
        71.01       70.91       70.80       70.69       70.58       70.46       70.35       70.23       70.12       70.00    
  39    70.00       70.40       70.76       71.09       71.40       71.67       71.91       72.12       72.30       72.45    
        72.58       72.67       72.73       72.76       72.76       72.73       72.69       72.66       72.62       72.57    
        72.53       72.49       72.44       72.39       72.33       72.27       72.21       72.14       72.07       71.99    
        71.92       71.83       71.75       71.66       71.57       71.48       71.39       71.29       71.19       71.09    
        70.99       70.89       70.78       70.67       70.56       70.45       70.34       70.23       70.11       70.00    
  40    70.00       70.39       70.75       71.09       71.39       71.66       71.90       72.11       72.29       72.43    
        72.55       72.64       72.70       72.73       72.73       72.70       72.66       72.63       72.59       72.54    
        72.50       72.46       72.41       72.35       72.30       72.24       72.17       72.11       72.04       71.96    
        71.88       71.80       71.72       71.64       71.55       71.46       71.36       71.27       71.17       71.07    
        70.97       70.87       70.77       70.66       70.55       70.44       70.33       70.22       70.11       70.00    
  41    70.00       70.39       70.75       71.08       71.38       71.65       71.88       72.09       72.27       72.42    
        72.53       72.62       72.68       72.71       72.71       72.67       72.64       72.60       72.56       72.52    
        72.47       72.43       72.38       72.32       72.27       72.21       72.14       72.08       72.01       71.93    
        71.86       71.78       71.70       71.61       71.52       71.43       71.34       71.25       71.15       71.06    
        70.96       70.86       70.75       70.65       70.54       70.44       70.33       70.22       70.11       70.00    
  42    70.00       70.39       70.75       71.07       71.37       71.64       71.87       72.08       72.25       72.40    
        72.52       72.60       72.66       72.69       72.69       72.65       72.62       72.58       72.54       72.49    
        72.45       72.40       72.35       72.30       72.24       72.18       72.12       72.05       71.98       71.91    
        71.83       71.75       71.67       71.59       71.50       71.41       71.32       71.23       71.14       71.04    
        70.94       70.84       70.74       70.64       70.53       70.43       70.32       70.22       70.11       70.00    
  43    70.00       70.39       70.74       71.07       71.36       71.63       71.86       72.07       72.24       72.39    
        72.50       72.59       72.64       72.67       72.67       72.63       72.60       72.56       72.51       72.47    
        72.43       72.38       72.33       72.27       72.22       72.16       72.09       72.03       71.96       71.89    
        71.81       71.73       71.65       71.57       71.48       71.40       71.31       71.22       71.12       71.03    
        70.93       70.83       70.73       70.63       70.53       70.42       70.32       70.21       70.11       70.00    
  44    70.00       70.38       70.74       71.06       71.36       71.62       71.85       72.06       72.23       72.38    
        72.49       72.57       72.63       72.66       72.65       72.62       72.58       72.54       72.50       72.45    
        72.41       72.36       72.31       72.25       72.20       72.14       72.07       72.01       71.94       71.87    
        71.79       71.71       71.63       71.55       71.47       71.38       71.29       71.20       71.11       71.02    
        70.92       70.82       70.72       70.62       70.52       70.42       70.31       70.21       70.11       70.00    
  45    70.00       70.38       70.74       71.06       71.35       71.61       71.85       72.05       72.22       72.37    
        72.48       72.56       72.62       72.64       72.64       72.60       72.56       72.52       72.48       72.44    
        72.39       72.34       72.29       72.24       72.18       72.12       72.06       71.99       71.92       71.85    
        71.78       71.70       71.62       71.54       71.45       71.37       71.28       71.19       71.10       71.01    
        70.91       70.81       70.71       70.62       70.51       70.41       70.31       70.21       70.10       70.00    
  46    70.00       70.38       70.73       71.06       71.35       71.61       71.84       72.04       72.21       72.36    
        72.47       72.55       72.61       72.63       72.63       72.59       72.55       72.51       72.47       72.42    
        72.38       72.33       72.28       72.22       72.16       72.10       72.04       71.98       71.91       71.84    
        71.76       71.69       71.61       71.53       71.44       71.36       71.27       71.18       71.09       71.00    
        70.90       70.81       70.71       70.61       70.51       70.41       70.31       70.21       70.10       70.00    
  47    70.00       70.38       70.73       71.05       71.34       71.60       71.84       72.04       72.21       72.35    
        72.46       72.55       72.60       72.62       72.62       72.58       72.54       72.50       72.46       72.41    
        72.37       72.32       72.27       72.21       72.15       72.09       72.03       71.97       71.90       71.83    
        71.75       71.68       71.60       71.52       71.43       71.35       71.26       71.17       71.08       70.99    
        70.90       70.80       70.70       70.61       70.51       70.41       70.31       70.20       70.10       70.00    
  48    70.00       70.38       70.73       71.05       71.34       71.60       71.83       72.03       72.20       72.35    
        72.46       72.54       72.59       72.62       72.61       72.57       72.54       72.49       72.45       72.40    
        72.36       72.31       72.26       72.20       72.15       72.09       72.02       71.96       71.89       71.82    
        71.74       71.67       71.59       71.51       71.43       71.34       71.26       71.17       71.08       70.99    
        70.89       70.80       70.70       70.60       70.50       70.40       70.30       70.20       70.10       70.00    
  49    70.00       70.38       70.73       71.05       71.34       71.60       71.83       72.03       72.20       72.34    
        72.45       72.54       72.59       72.61       72.61       72.57       72.53       72.49       72.45       72.40    
        72.35       72.30       72.25       72.20       72.14       72.08       72.02       71.95       71.88       71.81    
        71.74       71.66       71.59       71.51       71.42       71.34       71.25       71.16       71.07       70.98    
        70.89       70.79       70.70       70.60       70.50       70.40       70.30       70.20       70.10       70.00    
  50    70.00       70.38       70.73       71.05       71.34       71.60       71.83       72.03       72.20       72.34    
        72.45       72.53       72.59       72.61       72.60       72.57       72.53       72.49       72.44       72.40    
        72.35       72.30       72.25       72.19       72.14       72.08       72.01       71.95       71.88       71.81    
        71.74       71.66       71.58       71.50       71.42       71.34       71.25       71.16       71.07       70.98    
        70.89       70.79       70.70       70.60       70.50       70.40       70.30       70.20       70.10       70.00    
1
              HEAD IN LAYER   3 AT END OF TIME STEP   1 IN STRESS PERIOD    1
  ---------------------------------------------------------------------------

            1           2           3           4           5           6           7           8           9          10
           11          12          13          14          15          16          17          18          19          20
           21          22          23          24          25          26          27          28          29          30
[...]
        72.76       72.50       72.27       72.07       71.90       71.73       71.58       71.42       71.27       71.11    
        70.93       70.74       70.53       70.28       69.99       69.64       69.19       68.63       68.06       68.50    
        68.93       69.24       69.46       69.62       69.73       69.82       69.88       69.93       69.97       70.00    
  24    70.00       70.55       71.02       71.42       71.76       72.04       72.28       72.48       72.65       72.78    
        72.88       72.97       73.03       73.07       73.10       73.12       73.15       73.19       73.23       73.23    
        72.92       72.64       72.41       72.20       72.01       71.84       71.68       71.52       71.36       71.19    
        71.02       70.83       70.62       70.39       70.13       69.83       69.50       69.16       68.92       69.02    
        69.22       69.41       69.57       69.69       69.79       69.85       69.91       69.94       69.97       70.00    
  25    70.00       70.68       71.19       71.61       71.97       72.27       72.52       72.73       72.91       73.06    
        73.17       73.26       73.33       73.38       73.40       73.41       73.43       73.44       73.46       73.45    
        73.04       72.75       72.50       72.30       72.11       71.93       71.77       71.61       71.45       71.28    
        71.11       70.93       70.73       70.52       70.29       70.05       69.80       69.57       69.43       69.43    
        69.50       69.61       69.70       69.79       69.85       69.90       69.94       69.96       69.98       70.00    
  26    70.00       70.58       71.07       71.49       71.86       72.17       72.43       72.65       72.84       72.99    
        73.11       73.21       73.28       73.33       73.35       73.35       73.36       73.36       73.36       73.35    
        73.05       72.79       72.56       72.36       72.18       72.01       71.84       71.68       71.52       71.36    
        71.19       71.02       70.84       70.65       70.45       70.25       70.05       69.88       69.77       69.73    
        69.75       69.79       69.84       69.88       69.92       69.95       69.97       69.99       69.99       70.00    
  27    70.00       70.52       70.99       71.41       71.77       72.08       72.35       72.58       72.77       72.93    
        73.06       73.16       73.23       73.28       73.30       73.29       73.29       73.29       73.28       73.26    
        73.02       72.80       72.59       72.41       72.23       72.06       71.90       71.75       71.59       71.43    
        71.27       71.11       70.94       70.77       70.59       70.42       70.26       70.12       70.02       69.97    
        69.95       69.95       69.96       69.98       69.99       70.00       70.01       70.01       70.01       70.00    
  28    70.00       70.49       70.94       71.34       71.70       72.01       72.28       72.51       72.71       72.87    
        73.00       73.10       73.18       73.22       73.24       73.23       73.22       73.21       73.20       73.17    
        72.98       72.79       72.60       72.43       72.26       72.10       71.95       71.80       71.65       71.50    
        71.35       71.19       71.04       70.88       70.72       70.57       70.43       70.31       70.22       70.15    
        70.11       70.09       70.07       70.07       70.06       70.05       70.04       70.03       70.02       70.00    
  29    70.00       70.47       70.90       71.29       71.64       71.95       72.22       72.45       72.65       72.81    
        72.95       73.05       73.12       73.17       73.19       73.17       73.16       73.14       73.12       73.10    
        72.93       72.76       72.60       72.44       72.28       72.13       71.99       71.84       71.70       71.56    
        71.41       71.27       71.12       70.98       70.84       70.70       70.57       70.46       70.37       70.30    
        70.24       70.20       70.17       70.15       70.12       70.10       70.08       70.05       70.03       70.00    
  30    70.00       70.45       70.87       71.25       71.59       71.90       72.17       72.40       72.60       72.76    
        72.90       73.00       73.07       73.12       73.13       73.12       73.10       73.08       73.05       73.02    
        72.88       72.73       72.58       72.43       72.29       72.15       72.01       71.87       71.74       71.60    
        71.47       71.33       71.19       71.06       70.93       70.81       70.69       70.58       70.49       70.41    
        70.35       70.30       70.25       70.21       70.18       70.14       70.11       70.07       70.04       70.00    
  31    70.00       70.44       70.85       71.22       71.55       71.86       72.12       72.35       72.55       72.71    
        72.85       72.95       73.02       73.07       73.08       73.06       73.04       73.02       72.99       72.96    
        72.83       72.69       72.56       72.42       72.29       72.16       72.03       71.90       71.77       71.64    
        71.51       71.38       71.26       71.13       71.01       70.89       70.78       70.68       70.59       70.51    
        70.44       70.38       70.32       70.27       70.22       70.18       70.13       70.09       70.04       70.00    
  32    70.00       70.43       70.83       71.19       71.52       71.82       72.08       72.31       72.51       72.67    
        72.80       72.90       72.98       73.02       73.03       73.01       72.98       72.96       72.93       72.89    
        72.78       72.66       72.53       72.41       72.29       72.16       72.04       71.92       71.79       71.67    
        71.55       71.43       71.31       71.19       71.07       70.96       70.86       70.76       70.67       70.59    
        70.51       70.44       70.38       70.32       70.26       70.21       70.16       70.10       70.05       70.00    
  33    70.00       70.42       70.81       71.17       71.50       71.79       72.05       72.27       72.47       72.63    
        72.76       72.86       72.93       72.97       72.98       72.96       72.93       72.90       72.87       72.84    
        72.73       72.62       72.51       72.39       72.28       72.16       72.05       71.93       71.81       71.70    
        71.58       71.47       71.35       71.24       71.13       71.02       70.92       70.82       70.73       70.65    
        70.57       70.50       70.43       70.36       70.30       70.24       70.18       70.12       70.06       70.00    
  34    70.00       70.42       70.80       71.15       71.47       71.76       72.02       72.24       72.43       72.59    
        72.72       72.82       72.89       72.93       72.93       72.91       72.88       72.85       72.82       72.78    
        72.68       72.58       72.48       72.37       72.26       72.16       72.05       71.94       71.83       71.72    
        71.60       71.49       71.39       71.28       71.17       71.07       70.97       70.88       70.79       70.70    
        70.62       70.54       70.47       70.40       70.33       70.26       70.19       70.13       70.06       70.00    
  35    70.00       70.41       70.79       71.14       71.45       71.74       71.99       72.21       72.40       72.56    
        72.69       72.79       72.85       72.89       72.89       72.87       72.84       72.81       72.77       72.73    
        72.64       72.55       72.45       72.35       72.25       72.15       72.04       71.94       71.83       71.73    
        71.62       71.52       71.41       71.31       71.21       71.11       71.01       70.92       70.83       70.74    
        70.66       70.58       70.50       70.43       70.35       70.28       70.21       70.14       70.07       70.00    
  36    70.00       70.41       70.78       71.12       71.44       71.72       71.97       72.19       72.37       72.53    
        72.66       72.75       72.82       72.85       72.85       72.83       72.80       72.76       72.73       72.69    
        72.60       72.51       72.42       72.33       72.23       72.14       72.04       71.94       71.84       71.74    
        71.64       71.54       71.43       71.33       71.24       71.14       71.04       70.95       70.86       70.77    
        70.69       70.61       70.53       70.45       70.37       70.30       70.22       70.15       70.07       70.00    
  37    70.00       70.40       70.77       71.11       71.42       71.70       71.95       72.16       72.35       72.50    
        72.63       72.72       72.78       72.82       72.82       72.79       72.76       72.72       72.69       72.65    
        72.57       72.48       72.40       72.31       72.22       72.13       72.03       71.94       71.84       71.74    
        71.65       71.55       71.45       71.35       71.26       71.16       71.07       70.98       70.89       70.80    
        70.71       70.63       70.55       70.47       70.39       70.31       70.23       70.15       70.08       70.00    
  38    70.00       70.40       70.77       71.10       71.41       71.68       71.93       72.14       72.32       72.48    
        72.60       72.69       72.75       72.79       72.79       72.76       72.72       72.69       72.65       72.61    
        72.53       72.45       72.37       72.29       72.20       72.11       72.02       71.93       71.84       71.75    
        71.65       71.56       71.46       71.37       71.28       71.18       71.09       71.00       70.91       70.82    
        70.74       70.65       70.57       70.48       70.40       70.32       70.24       70.16       70.08       70.00    
  39    70.00       70.40       70.76       71.09       71.40       71.67       71.91       72.12       72.30       72.45    
        72.58       72.67       72.73       72.76       72.76       72.73       72.69       72.66       72.62       72.57    
        72.50       72.43       72.35       72.27       72.19       72.10       72.02       71.93       71.84       71.75    
        71.66       71.56       71.47       71.38       71.29       71.20       71.11       71.02       70.93       70.84    
        70.75       70.67       70.58       70.50       70.41       70.33       70.25       70.16       70.08       70.00    
  40    70.00       70.39       70.75       71.09       71.39       71.66       71.90       72.11       72.29       72.43    
        72.55       72.64       72.70       72.73       72.73       72.70       72.66       72.63       72.59       72.54    
        72.47       72.40       72.33       72.25       72.17       72.09       72.01       71.92       71.83       71.75    
        71.66       71.57       71.48       71.39       71.30       71.21       71.12       71.03       70.94       70.85    
        70.76       70.68       70.59       70.51       70.42       70.34       70.25       70.17       70.08       70.00    
  41    70.00       70.39       70.75       71.08       71.38       71.65       71.88       72.09       72.27       72.42    
        72.53       72.62       72.68       72.71       72.71       72.67       72.64       72.60       72.56       72.52    
        72.45       72.38       72.31       72.23       72.16       72.08       72.00       71.91       71.83       71.74    
        71.66       71.57       71.48       71.39       71.31       71.22       71.13       71.04       70.95       70.86    
        70.77       70.69       70.60       70.51       70.43       70.34       70.26       70.17       70.09       70.00    
  42    70.00       70.39       70.75       71.07       71.37       71.64       71.87       72.08       72.25       72.40    
        72.52       72.60       72.66       72.69       72.69       72.65       72.62       72.58       72.54       72.49    
        72.43       72.36       72.29       72.22       72.14       72.07       71.99       71.91       71.83       71.74    
        71.66       71.57       71.49       71.40       71.31       71.22       71.13       71.05       70.96       70.87    
        70.78       70.69       70.61       70.52       70.43       70.35       70.26       70.17       70.09       70.00    
  43    70.00       70.39       70.74       71.07       71.36       71.63       71.86       72.07       72.24       72.39    
        72.50       72.59       72.64       72.67       72.67       72.63       72.60       72.56       72.51       72.47    
        72.41       72.34       72.27       72.20       72.13       72.06       71.98       71.90       71.82       71.74    
        71.66       71.57       71.49       71.40       71.31       71.23       71.14       71.05       70.96       70.88    
        70.79       70.70       70.61       70.53       70.44       70.35       70.26       70.17       70.09       70.00    
  44    70.00       70.38       70.74       71.06       71.36       71.62       71.85       72.06       72.23       72.38    
        72.49       72.57       72.63       72.65       72.65       72.62       72.58       72.54       72.50       72.45    
        72.39       72.33       72.26       72.19       72.12       72.05       71.97       71.89       71.82       71.74    
        71.65       71.57       71.49       71.40       71.32       71.23       71.14       71.06       70.97       70.88    
        70.79       70.71       70.62       70.53       70.44       70.35       70.26       70.18       70.09       70.00    
  45    70.00       70.38       70.74       71.06       71.35       71.61       71.85       72.05       72.22       72.37    
        72.48       72.56       72.62       72.64       72.64       72.60       72.56       72.52       72.48       72.44    
        72.38       72.31       72.25       72.18       72.11       72.04       71.97       71.89       71.81       71.73    
        71.65       71.57       71.49       71.40       71.32       71.23       71.15       71.06       70.97       70.88    
        70.80       70.71       70.62       70.53       70.44       70.35       70.27       70.18       70.09       70.00    
  46    70.00       70.38       70.73       71.06       71.35       71.61       71.84       72.04       72.21       72.36    
        72.47       72.55       72.61       72.63       72.63       72.59       72.55       72.51       72.47       72.42    
        72.36       72.30       72.24       72.17       72.10       72.03       71.96       71.88       71.81       71.73    
        71.65       71.57       71.49       71.40       71.32       71.23       71.15       71.06       70.97       70.89    
        70.80       70.71       70.62       70.53       70.45       70.36       70.27       70.18       70.09       70.00    
  47    70.00       70.38       70.73       71.05       71.34       71.60       71.84       72.04       72.21       72.35    
        72.46       72.55       72.60       72.62       72.62       72.58       72.54       72.50       72.46       72.41    
        72.35       72.29       72.23       72.16       72.10       72.03       71.95       71.88       71.80       71.73    
        71.65       71.57       71.49       71.40       71.32       71.23       71.15       71.06       70.98       70.89    
        70.80       70.71       70.62       70.54       70.45       70.36       70.27       70.18       70.09       70.00    
  48    70.00       70.38       70.73       71.05       71.34       71.60       71.83       72.03       72.20       72.35    
        72.46       72.54       72.59       72.62       72.61       72.57       72.54       72.49       72.45       72.40    
        72.35       72.29       72.22       72.16       72.09       72.02       71.95       71.88       71.80       71.72    
        71.65       71.57       71.49       71.40       71.32       71.24       71.15       71.06       70.98       70.89    
        70.80       70.71       70.63       70.54       70.45       70.36       70.27       70.18       70.09       70.00    
  49    70.00       70.38       70.73       71.05       71.34       71.60       71.83       72.03       72.20       72.34    
        72.45       72.54       72.59       72.61       72.61       72.57       72.53       72.49       72.45       72.40    
        72.34       72.28       72.22       72.16       72.09       72.02       71.95       71.87       71.80       71.72    
        71.65       71.57       71.48       71.40       71.32       71.24       71.15       71.06       70.98       70.89    
        70.80       70.71       70.63       70.54       70.45       70.36       70.27       70.18       70.09       70.00    
  50    70.00       70.38       70.73       71.05       71.34       71.60       71.83       72.03       72.20       72.34    
        72.45       72.53       72.59       72.61       72.60       72.57       72.53       72.49       72.44       72.40    
        72.34       72.28       72.22       72.15       72.09       72.02       71.95       71.87       71.80       71.72    
        71.64       71.57       71.48       71.40       71.32       71.24       71.15       71.06       70.98       70.89    
        70.80       70.72       70.63       70.54       70.45       70.36       70.27       70.18       70.09       70.00    

 HEAD WILL BE SAVED ON UNIT   51 AT END OF TIME STEP    1, STRESS PERIOD    1

 DRAWDOWN WILL BE SAVED ON UNIT   52 AT END OF TIME STEP    1, STRESS PERIOD    1
1
  VOLUMETRIC BUDGET FOR ENTIRE MODEL AT END OF TIME STEP    1, STRESS PERIOD   1
  ------------------------------------------------------------------------------

     CUMULATIVE VOLUMES      L**3       RATES FOR THIS TIME STEP      L**3/T
     ------------------                 ------------------------

           IN:                                      IN:
           ---                                      ---
             STORAGE =           0.0000               STORAGE =           0.0000
       CONSTANT HEAD =          77.0318         CONSTANT HEAD =          77.0318
               WELLS =         375.0000                 WELLS =         375.0000
       RIVER LEAKAGE =        5749.2280         RIVER LEAKAGE =        5749.2280
                  ET =           0.0000                    ET =           0.0000
            RECHARGE =        7600.0000              RECHARGE =        7600.0000

            TOTAL IN =       13801.2598              TOTAL IN =       13801.2598

          OUT:                                     OUT:
          ----                                     ----
             STORAGE =           0.0000               STORAGE =           0.0000
       CONSTANT HEAD =        7635.8091         CONSTANT HEAD =        7635.8091
               WELLS =        6000.0000                 WELLS =        6000.0000
       RIVER LEAKAGE =           0.0000         RIVER LEAKAGE =           0.0000
                  ET =         165.4486                    ET =         165.4486
            RECHARGE =           0.0000              RECHARGE =           0.0000

           TOTAL OUT =       13801.2568             TOTAL OUT =       13801.2568

            IN - OUT =       2.9297E-03              IN - OUT =       2.9297E-03

 PERCENT DISCREPANCY =           0.00     PERCENT DISCREPANCY =           0.00






         TIME SUMMARY AT END OF TIME STEP    1 IN STRESS PERIOD    1
                    SECONDS     MINUTES      HOURS       DAYS        YEARS
                    -----------------------------------------------------------
   TIME STEP LENGTH  86400.      1440.0      24.000      1.0000     2.73785E-03
 STRESS PERIOD TIME  86400.      1440.0      24.000      1.0000     2.73785E-03
         TOTAL TIME  86400.      1440.0      24.000      1.0000     2.73785E-03
1

 Run end date and time (yyyy/mm/dd hh:mm:ss): 2026/02/25  7:18:50
 Elapsed run time:  9.164 Seconds

