                                  MODFLOW-2005     
      U.S. GEOLOGICAL SURVEY MODULAR FINITE-DIFFERENCE GROUND-WATER FLOW MODEL
                            VERSION 1.12.00 2/3/2017

 LIST FILE: static_ensemble_1211311.list
                         UNIT    2

 OPENING static_ensemble_1211311.dis
 FILE TYPE:DIS   UNIT   11   STATUS:OLD    
 FORMAT:FORMATTED              ACCESS:SEQUENTIAL          

 OPENING static_ensemble_1211311.bas
 FILE TYPE:BAS6   UNIT   13   STATUS:OLD    
 FORMAT:FORMATTED              ACCESS:SEQUENTIAL          

 OPENING static_ensemble_1211311.lpf
 FILE TYPE:LPF   UNIT   15   STATUS:OLD    
 FORMAT:FORMATTED              ACCESS:SEQUENTIAL          

 OPENING static_ensemble_1211311.evt
 FILE TYPE:EVT   UNIT   22   STATUS:OLD    
 FORMAT:FORMATTED              ACCESS:SEQUENTIAL          

 OPENING static_ensemble_1211311.rch
 FILE TYPE:RCH   UNIT   19   STATUS:OLD    
 FORMAT:FORMATTED              ACCESS:SEQUENTIAL          

 OPENING static_ensemble_1211311.riv
 FILE TYPE:RIV   UNIT   18   STATUS:OLD    
 FORMAT:FORMATTED              ACCESS:SEQUENTIAL          

 OPENING static_ensemble_1211311.wel
 FILE TYPE:WEL   UNIT   20   STATUS:OLD    
 FORMAT:FORMATTED              ACCESS:SEQUENTIAL          

 OPENING static_ensemble_1211311.oc
 FILE TYPE:OC   UNIT   14   STATUS:OLD    
 FORMAT:FORMATTED              ACCESS:SEQUENTIAL          

 OPENING static_ensemble_1211311.pcg
 FILE TYPE:PCG   UNIT   27   STATUS:OLD    
 FORMAT:FORMATTED              ACCESS:SEQUENTIAL          

 OPENING static_ensemble_1211311.cbc
 FILE TYPE:DATA(BINARY)   UNIT   53   STATUS:REPLACE
 FORMAT:UNFORMATTED            ACCESS:STREAM              

 OPENING static_ensemble_1211311.hds
 FILE TYPE:DATA(BINARY)   UNIT   51   STATUS:REPLACE
 FORMAT:UNFORMATTED            ACCESS:STREAM              

 OPENING static_ensemble_1211311.ddn
 FILE TYPE:DATA(BINARY)   UNIT   52   STATUS:REPLACE
 FORMAT:UNFORMATTED            ACCESS:STREAM              

 BAS -- BASIC PACKAGE, VERSION 7, 5/2/2005 INPUT READ FROM UNIT   13
 
 MODFLOW was compiled using mixed precision
 Precision of REAL variables:           6
 Precision of DOUBLE PRECISION variables:          15

 DISCRETIZATION INPUT DATA READ FROM UNIT   11
 # DIS package for MODFLOW-2005 generated by Flopy 3.10.0
    3 LAYERS        50 ROWS        50 COLUMNS
    1 STRESS PERIOD(S) IN SIMULATION
 MODEL TIME UNIT IS DAYS
 MODEL LENGTH UNIT IS METERS
  Confining bed flag for each layer:
   0   0   0

                     DELR =   1000.00    

                     DELC =   1000.00    



           TOP ELEVATION OF LAYER 1
 READING ON UNIT   11 WITH FORMAT: (50E15.6)           



             MODEL LAYER BOTTOM EL. FOR LAYER   1
 READING ON UNIT   11 WITH FORMAT: (50E15.6)           



             MODEL LAYER BOTTOM EL. FOR LAYER   2
 READING ON UNIT   11 WITH FORMAT: (50E15.6)           



             MODEL LAYER BOTTOM EL. FOR LAYER   3
 READING ON UNIT   11 WITH FORMAT: (50E15.6)           


 STRESS PERIOD     LENGTH       TIME STEPS     MULTIPLIER FOR DELT    SS FLAG
 ----------------------------------------------------------------------------
        1         1.000000          1                    1.000         SS

 STEADY-STATE SIMULATION



 
 # BAS6 package for MODFLOW-2005 generated by Flopy 3.10.0                       
 THE FREE FORMAT OPTION HAS BEEN SELECTED



                     BOUNDARY ARRAY FOR LAYER   1
 READING ON UNIT   13 WITH FORMAT: (50I10)             



                     BOUNDARY ARRAY FOR LAYER   2
 READING ON UNIT   13 WITH FORMAT: (50I10)             



                     BOUNDARY ARRAY FOR LAYER   3
 READING ON UNIT   13 WITH FORMAT: (50I10)             

 AQUIFER HEAD WILL BE SET TO  -999.99     AT ALL NO-FLOW NODES (IBOUND=0).



                       INITIAL HEAD FOR LAYER   1
 READING ON UNIT   13 WITH FORMAT: (50E15.6)           



                       INITIAL HEAD FOR LAYER   2
 READING ON UNIT   13 WITH FORMAT: (50E15.6)           



                       INITIAL HEAD FOR LAYER   3
 READING ON UNIT   13 WITH FORMAT: (50E15.6)           
 # OC package for MODFLOW-2005 generated by Flopy 3.10.0

 OUTPUT CONTROL IS SPECIFIED ONLY AT TIME STEPS FOR WHICH OUTPUT IS DESIRED
 COMPACT CELL-BY-CELL BUDGET FILES WILL BE WRITTEN
 AUXILIARY DATA WILL BE SAVED IN CELL-BY-CELL BUDGET FILES
 HEAD PRINT FORMAT CODE IS   0    DRAWDOWN PRINT FORMAT CODE IS   0
 HEADS WILL BE SAVED ON UNIT   51    DRAWDOWNS WILL BE SAVED ON UNIT   52

 LPF -- LAYER-PROPERTY FLOW PACKAGE, VERSION 7, 5/2/2005
         INPUT READ FROM UNIT   15
 # LPF package for MODFLOW-2005 generated by Flopy 3.10.0
 CELL-BY-CELL FLOWS WILL BE SAVED ON UNIT   53
 HEAD AT CELLS THAT CONVERT TO DRY= -1.00000E+30
 No named parameters
 STORAGECOEFFICIENT OPTION:
 Read storage coefficient rather than specific storage

   LAYER FLAGS:
 LAYER       LAYTYP        LAYAVG         CHANI        LAYVKA        LAYWET
 ---------------------------------------------------------------------------
    1             1             0     1.000E+00             0             0
    2             1             0     1.000E+00             0             0
    3             1             0     1.000E+00             0             0

   INTERPRETATION OF LAYER FLAGS:
                        INTERBLOCK     HORIZONTAL    DATA IN
         LAYER TYPE   TRANSMISSIVITY   ANISOTROPY   ARRAY VKA   WETTABILITY
 LAYER      (LAYTYP)      (LAYAVG)       (CHANI)      (LAYVKA)      (LAYWET)
 ---------------------------------------------------------------------------
    1   CONVERTIBLE      HARMONIC     1.000E+00    VERTICAL K  NON-WETTABLE
    2   CONVERTIBLE      HARMONIC     1.000E+00    VERTICAL K  NON-WETTABLE
    3   CONVERTIBLE      HARMONIC     1.000E+00    VERTICAL K  NON-WETTABLE

 WETTING CAPABILITY IS NOT ACTIVE IN ANY LAYER



              HYD. COND. ALONG ROWS FOR LAYER   1
 READING ON UNIT   15 WITH FORMAT: (50E15.6)           



                VERTICAL HYD. COND. FOR LAYER   1
 READING ON UNIT   15 WITH FORMAT: (50E15.6)           



              HYD. COND. ALONG ROWS FOR LAYER   2
 READING ON UNIT   15 WITH FORMAT: (50E15.6)           



                VERTICAL HYD. COND. FOR LAYER   2
 READING ON UNIT   15 WITH FORMAT: (50E15.6)           



              HYD. COND. ALONG ROWS FOR LAYER   3
 READING ON UNIT   15 WITH FORMAT: (50E15.6)           



                VERTICAL HYD. COND. FOR LAYER   3
 READING ON UNIT   15 WITH FORMAT: (50E15.6)           

 WEL -- WELL PACKAGE, VERSION 7, 5/2/2005 INPUT READ FROM UNIT   20
 # WEL package for MODFLOW-2005 generated by Flopy 3.10.0
 No named parameters
 MAXIMUM OF      3 ACTIVE WELLS AT ONE TIME


     0 Well parameters

 RIV -- RIVER PACKAGE, VERSION 7, 5/2/2005 INPUT READ FROM UNIT   18
 # RIV package for MODFLOW-2005 generated by Flopy 3.10.0
 No named parameters
 MAXIMUM OF     49 ACTIVE RIVER REACHES AT ONE TIME
 CELL-BY-CELL FLOWS WILL BE SAVED ON UNIT   53


     0 River parameters

 EVT -- EVAPOTRANSPIRATION PACKAGE, VERSION 7, 5/2/2005
         INPUT READ FROM UNIT   22
 # EVT package for MODFLOW-2005 generated by Flopy 3.10.0
 No named parameters
 OPTION 3 -- EVAPOTRANSPIRATION FROM HIGHEST ACTIVE NODE IN EACH VERTICAL COLUMN
 CELL-BY-CELL FLOWS WILL BE SAVED ON UNIT   53


     0 Evapotranspiration parameters

 RCH -- RECHARGE PACKAGE, VERSION 7, 5/2/2005 INPUT READ FROM UNIT   19
 # RCH package for MODFLOW-2005 generated by Flopy 3.10.0
 No named parameters
 OPTION 3 -- RECHARGE TO HIGHEST ACTIVE NODE IN EACH VERTICAL COLUMN
 CELL-BY-CELL FLOWS WILL BE SAVED ON UNIT   53


     0 Recharge parameters

 PCG -- CONJUGATE-GRADIENT SOLUTION PACKAGE, VERSION 7, 5/2/2005
 # PCG package for MODFLOW-2005 generated by Flopy 3.10.0
 MAXIMUM OF   5000 CALLS OF SOLUTION ROUTINE
 MAXIMUM OF    500 INTERNAL ITERATIONS PER CALL TO SOLUTION ROUTINE
 MATRIX PRECONDITIONING TYPE :    1



                                    SOLUTION BY THE CONJUGATE-GRADIENT METHOD
                                   -------------------------------------------
                    MAXIMUM NUMBER OF CALLS TO PCG ROUTINE =     5000
                        MAXIMUM ITERATIONS PER CALL TO PCG =      500
                               MATRIX PRECONDITIONING TYPE =        1
        RELAXATION FACTOR (ONLY USED WITH PRECOND. TYPE 1) =    0.97000E+00
 PARAMETER OF POLYNOMIAL PRECOND. = 2 (2) OR IS CALCULATED :        0
                         HEAD CHANGE CRITERION FOR CLOSURE =    0.10000E-04
                     RESIDUAL CHANGE CRITERION FOR CLOSURE =    0.10000E-04
            PCG HEAD AND RESIDUAL CHANGE PRINTOUT INTERVAL =      999
     PRINTING FROM SOLVER IS LIMITED(1) OR SUPPRESSED (>1) =        3
                            STEADY-STATE DAMPING PARAMETER =    0.10000E-01
                               TRANSIENT DAMPING PARAMETER =    0.10000E-01
1
                            STRESS PERIOD NO.    1, LENGTH =   1.000000    
                            -----------------------------------------------

                              NUMBER OF TIME STEPS =     1

                               MULTIPLIER FOR DELT =     1.000

                            INITIAL TIME STEP SIZE =   1.000000    

 WELL NO.  LAYER   ROW   COL   STRESS RATE         
 --------------------------------------------------
      1      3     22     39      -1500.    
      2      1     13     15      -4500.    
      3      1     25     26       375.0    

      3 WELLS

 REACH NO.  LAYER   ROW   COL     STAGE      CONDUCTANCE     BOTTOM EL.         
 -------------------------------------------------------------------------------
      1      1     25      2       100.5           50.00           98.00    
      2      1     25      3       99.50           50.00           97.00    
      3      1     25      4       98.50           50.00           96.00    
      4      1     25      5       97.50           50.00           95.00    
      5      1     25      6       96.50           50.00           94.00    
      6      1     25      7       95.50           50.00           93.00    
      7      1     25      8       94.50           50.00           92.00    
      8      1     25      9       93.50           50.00           91.00    
      9      1     25     10       92.50           50.00           90.00    
     10      1     25     11       91.50           50.00           89.00    
     11      1     25     12       90.50           50.00           88.00    
     12      1     25     13       89.50           50.00           87.00    
     13      1     25     14       88.50           50.00           86.00    
     14      1     25     15       87.50           50.00           85.00    
     15      1     25     16       86.50           50.00           84.00    
     16      1     25     17       85.50           50.00           83.00    
     17      1     25     18       84.50           50.00           82.00    
     18      1     25     19       83.50           50.00           81.00    
     19      1     25     20       82.50           50.00           80.00    
     20      1     25     21       81.50           50.00           79.00    
     21      1     25     22       80.50           50.00           78.00    
     22      1     25     23       79.50           50.00           77.00    
     23      1     25     24       78.50           50.00           76.00    
     24      1     25     25       77.50           50.00           75.00    
     25      1     25     26       77.40           50.00           74.90    
     26      1     25     27       77.30           50.00           74.80    
     27      1     25     28       77.20           50.00           74.70    
     28      1     25     29       77.10           50.00           74.60    
     29      1     25     30       77.00           50.00           74.50    
     30      1     25     31       76.90           50.00           74.40    
     31      1     25     32       76.80           50.00           74.30    
     32      1     25     33       76.70           50.00           74.20    
     33      1     25     34       76.60           50.00           74.10    
     34      1     25     35       76.50           50.00           74.00    
     35      1     25     36       76.40           50.00           73.90    
     36      1     25     37       76.30           50.00           73.80    
     37      1     25     38       76.20           50.00           73.70    
     38      1     25     39       76.10           50.00           73.60    
     39      1     25     40       76.00           50.00           73.50    
     40      1     25     41       75.90           50.00           73.40    
     41      1     25     42       75.80           50.00           73.30    
     42      1     25     43       75.70           50.00           73.20    
     43      1     25     44       75.60           50.00           73.10    
     44      1     25     45       75.50           50.00           73.00    
     45      1     25     46       75.40           50.00           72.90    
     46      1     25     47       75.30           50.00           72.80    
     47      1     25     48       75.20           50.00           72.70    
     48      1     25     49       75.10           50.00           72.60    
     49      1     25     50       75.00           50.00           72.50    

     49 RIVER REACHES



                         ET SURFACE
 READING ON UNIT   22 WITH FORMAT: (50E15.6)           



            EVAPOTRANSPIRATION RATE
 READING ON UNIT   22 WITH FORMAT: (50E15.6)           

         EXTINCTION DEPTH =   10.0000    



                           RECHARGE
 READING ON UNIT   19 WITH FORMAT: (50E15.6)           
 
 SOLVING FOR HEAD 

 OUTPUT CONTROL FOR STRESS PERIOD    1   TIME STEP    1
    SAVE HEAD FOR ALL LAYERS
    SAVE DRAWDOWN FOR ALL LAYERS
    SAVE BUDGET
    PRINT HEAD FOR ALL LAYERS
    PRINT BUDGET
 UBDSV2 SAVING "   CONSTANT HEAD" ON UNIT  53 AT TIME STEP  1, STRESS PERIOD   1
 UBDSV1 SAVING "FLOW RIGHT FACE " ON UNIT  53 AT TIME STEP  1, STRESS PERIOD   1
 UBDSV1 SAVING "FLOW FRONT FACE " ON UNIT  53 AT TIME STEP  1, STRESS PERIOD   1
 UBDSV1 SAVING "FLOW LOWER FACE " ON UNIT  53 AT TIME STEP  1, STRESS PERIOD   1
 UBDSV4 SAVING "   RIVER LEAKAGE" ON UNIT  53 AT TIME STEP  1, STRESS PERIOD   1
 UBDSV3 SAVING "              ET" ON UNIT  53 AT TIME STEP  1, STRESS PERIOD   1
 UBDSV3 SAVING "        RECHARGE" ON UNIT  53 AT TIME STEP  1, STRESS PERIOD   1
1
              HEAD IN LAYER   1 AT END OF TIME STEP   1 IN STRESS PERIOD    1
  ---------------------------------------------------------------------------

            1           2           3           4           5           6           7           8           9          10
           11          12          13          14          15          16          17          18          19          20
           21          22          23          24          25          26          27          28          29          30
           31          32          33          34          35          36          37          38          39          40
           41          42          43          44          45          46          47          48          49          50
 ........................................................................................................................
   1  -1000.0     -1000.0     -1000.0     -1000.0     -1000.0     -1000.0     -1000.0     -1000.0     -1000.0     -1000.0    
      -1000.0     -1000.0     -1000.0     -1000.0     -1000.0     -1000.0     -1000.0     -1000.0     -1000.0     -1000.0    
      -1000.0     -1000.0     -1000.0     -1000.0     -1000.0     -1000.0     -1000.0     -1000.0     -1000.0     -1000.0    
      -1000.0     -1000.0     -1000.0     -1000.0     -1000.0     -1000.0     -1000.0     -1000.0     -1000.0     -1000.0    
      -1000.0     -1000.0     -1000.0     -1000.0     -1000.0     -1000.0     -1000.0     -1000.0     -1000.0       70.00    
   2  -1000.0     -1000.0     -1000.0     -1000.0     -1000.0       75.14       75.02       74.82       74.60       74.35    
        74.18       73.97       73.75       73.52       73.28       73.04       72.82       72.62       72.44       72.28    
        72.14       72.01       71.88       71.77       71.66       71.56       71.46       71.36       71.26       71.17    
        71.08       70.99       70.90       70.82       70.74       70.67       70.59       70.53       70.46       70.40    
        70.35       70.30       70.25       70.21       70.17       70.13       70.10       70.06       70.03       70.00    
   3  -1000.0     -1000.0     -1000.0     -1000.0       75.33       75.20       75.02       74.81       74.57       74.38    
        74.18       73.96       73.74       73.50       73.26       73.01       72.79       72.60       72.42       72.27    
        72.13       72.00       71.88       71.76       71.66       71.55       71.45       71.35       71.26       71.17    
        71.07       70.99       70.90       70.82       70.74       70.66       70.59       70.52       70.46       70.40    
        70.35       70.30       70.25       70.21       70.17       70.13       70.09       70.06       70.03       70.00    
   4  -1000.0     -1000.0     -1000.0       75.53       75.40       75.23       75.03       74.79       74.60       74.39    
        74.17       73.94       73.70       73.45       73.21       72.96       72.74       72.55       72.38       72.24    
        72.10       71.98       71.86       71.75       71.65       71.55       71.45       71.35       71.25       71.16    
        71.07       70.98       70.89       70.81       70.73       70.65       70.58       70.51       70.45       70.39    
        70.34       70.29       70.24       70.20       70.16       70.12       70.09       70.06       70.03       70.00    
   5  -1000.0     -1000.0       75.72       75.60       75.44       75.25       75.02       74.83       74.62       74.39    
        74.15       73.90       73.64       73.38       73.13       72.88       72.67       72.49       72.33       72.19    
        72.06       71.95       71.84       71.74       71.64       71.54       71.44       71.34       71.25       71.15    
        71.06       70.97       70.88       70.80       70.72       70.64       70.57       70.50       70.44       70.38    
        70.32       70.28       70.23       70.19       70.15       70.12       70.09       70.06       70.03       70.00    
   6  -1000.0       75.86       75.77       75.64       75.47       75.25       75.07       74.86       74.63       74.38    
        74.11       73.83       73.55       73.28       73.02       72.77       72.57       72.40       72.25       72.13    
        72.02       71.91       71.82       71.72       71.62       71.53       71.43       71.33       71.24       71.14    
        71.05       70.96       70.87       70.78       70.70       70.62       70.55       70.48       70.42       70.36    
        70.31       70.26       70.22       70.18       70.14       70.11       70.08       70.05       70.03       70.00    
   7  -1000.0       75.88       75.80       75.67       75.48       75.31       75.11       74.88       74.63       74.35    
        74.05       73.74       73.43       73.13       72.86       72.61       72.42       72.28       72.16       72.06    
        71.96       71.88       71.79       71.70       71.61       71.52       71.42       71.33       71.23       71.13    
        71.04       70.95       70.85       70.77       70.68       70.60       70.53       70.46       70.40       70.34    
        70.28       70.24       70.20       70.16       70.13       70.10       70.07       70.04       70.02       70.00    
   8  -1000.0       75.92       75.84       75.70       75.55       75.37       75.15       74.91       74.63       74.32    
        73.98       73.62       73.27       72.93       72.64       72.40       72.24       72.13       72.04       71.97    
        71.90       71.83       71.76       71.68       71.60       71.51       71.41       71.32       71.22       71.12    
        71.02       70.93       70.84       70.75       70.66       70.58       70.50       70.43       70.37       70.31    
        70.26       70.21       70.17       70.14       70.11       70.08       70.06       70.04       70.02       70.00    
   9  -1000.0       75.97       75.89       75.78       75.62       75.43       75.20       74.94       74.63       74.28    
        73.89       73.48       73.06       72.66       72.34       72.12       72.01       71.95       71.92       71.89    
        71.85       71.80       71.74       71.67       71.59       71.50       71.41       71.31       71.21       71.11    
        71.01       70.91       70.81       70.72       70.63       70.55       70.47       70.40       70.33       70.27    
        70.22       70.18       70.14       70.11       70.08       70.06       70.04       70.03       70.01       70.00    
  10  -1000.0       76.04       75.97       75.86       75.70       75.51       75.27       74.98       74.64       74.25    
        73.81       73.31       72.79       72.28       71.89       71.73       71.71       71.75       71.79       71.81    
        71.80       71.78       71.73       71.66       71.59       71.50       71.40       71.30       71.20       71.10    
        70.99       70.89       70.79       70.69       70.60       70.51       70.43       70.36       70.29       70.23    
        70.18       70.14       70.11       70.08       70.06       70.04       70.03       70.02       70.01       70.00    
  11  -1000.0       76.12       76.06       75.95       75.80       75.60       75.35       75.04       74.68       74.25    
        73.74       73.15       72.47       71.76       71.19       71.19       71.37       71.55       71.68       71.75    
        71.78       71.77       71.73       71.67       71.60       71.51       71.41       71.30       71.19       71.08    
        70.97       70.86       70.76       70.65       70.56       70.46       70.38       70.31       70.24       70.18    
        70.13       70.10       70.06       70.04       70.02       70.01       70.01       70.00       70.00       70.00    
  12  -1000.0       76.23       76.17       76.07       75.92       75.71       75.46       75.14       74.76       74.29    
        73.73       73.03       72.15       71.04       69.89       70.46       71.02       71.40       71.62       71.74    
        71.79       71.80       71.76       71.70       71.62       71.52       71.42       71.31       71.19       71.07    
        70.95       70.84       70.72       70.61       70.51       70.41       70.33       70.25       70.18       70.12    
        70.08       70.04       70.02       70.00       69.99       69.98       69.98       69.99       69.99       70.00    
  13  -1000.0       76.36       76.31       76.21       76.06       75.86       75.60       75.28       74.88       74.41    
        73.81       73.06       72.01       70.32       66.73       69.72       70.86       71.39       71.67       71.80    
        71.86       71.86       71.81       71.74       71.65       71.55       71.43       71.31       71.19       71.06    
        70.93       70.81       70.68       70.57       70.45       70.35       70.26       70.18       70.11       70.05    
        70.01       69.98       69.96       69.95       69.94       69.95       69.96       69.97       69.98       70.00    
  14  -1000.0       76.52       76.47       76.37       76.23       76.03       75.77       75.45       75.07       74.60    
        74.04       73.33       72.45       71.34       70.18       70.74       71.28       71.64       71.85       71.95    
        71.98       71.96       71.90       71.81       71.70       71.58       71.46       71.32       71.18       71.05    
        70.91       70.77       70.64       70.51       70.39       70.28       70.18       70.10       70.02       69.97    
        69.93       69.90       69.89       69.89       69.89       69.91       69.92       69.95       69.97       70.00    
  15  -1000.0       76.70       76.66       76.56       76.42       76.22       75.98       75.67       75.31       74.87    
        74.36       73.75       73.07       72.35       71.77       71.74       71.89       72.04       72.13       72.17    
        72.15       72.09       72.01       71.89       71.77       71.63       71.48       71.33       71.18       71.03    
        70.88       70.73       70.59       70.45       70.32       70.20       70.09       70.00       69.93       69.87    
        69.84       69.82       69.81       69.82       69.83       69.86       69.89       69.92       69.96       70.00    
  16  -1000.0       76.91       76.86       76.77       76.63       76.45       76.21       75.92       75.58       75.19    
        74.73       74.23       73.68       73.16       72.75       72.55       72.50       72.49       72.48       72.44    
        72.36       72.26       72.14       71.99       71.84       71.68       71.52       71.35       71.18       71.02    
        70.85       70.69       70.53       70.38       70.24       70.10       69.98       69.88       69.81       69.75    
        69.72       69.72       69.72       69.74       69.77       69.81       69.85       69.90       69.95       70.00    
  17  -1000.0       77.13       77.08       77.00       76.87       76.69       76.47       76.20       75.89       75.53    
        75.13       74.70       74.25       73.83       73.47       73.21       73.06       72.95       72.85       72.73    
        72.60       72.45       72.28       72.11       71.92       71.74       71.55       71.36       71.18       71.00    
        70.82       70.64       70.47       70.31       70.15       69.99       69.86       69.74       69.66       69.61    
        69.59       69.60       69.62       69.65       69.70       69.75       69.80       69.86       69.93       70.00    
  18  -1000.0       77.37       77.33       77.24       77.12       76.95       76.75       76.50       76.21       75.88    
        75.53       75.15       74.76       74.39       74.06       73.78       73.56       73.39       73.22       73.05    
        72.86       72.65       72.44       72.22       72.01       71.79       71.58       71.38       71.17       70.98    
        70.78       70.59       70.41       70.22       70.04       69.87       69.71       69.57       69.48       69.44    
        69.44       69.47       69.51       69.56       69.62       69.68       69.75       69.83       69.91       70.00    
  19  -1000.0       77.62       77.58       77.50       77.39       77.23       77.04       76.80       76.54       76.24    
        75.91       75.57       75.22       74.88       74.56       74.27       74.02       73.81       73.61       73.39    
        73.13       72.86       72.60       72.34       72.09       71.85       71.61       71.38       71.16       70.95    
        70.74       70.54       70.34       70.14       69.93       69.73       69.53       69.36       69.25       69.22    
        69.26       69.32       69.38       69.46       69.53       69.61       69.69       69.79       69.89       70.00    
  20  -1000.0       77.89       77.85       77.77       77.66       77.52       77.33       77.12       76.87       76.59    
        76.29       75.97       75.65       75.32       75.01       74.70       74.44       74.22       74.02       73.75    
        73.41       73.07       72.75       72.45       72.16       71.89       71.63       71.38       71.15       70.92    
        70.70       70.48       70.27       70.05       69.82       69.58       69.34       69.09       68.92       68.95    
        69.05       69.16       69.26       69.35       69.44       69.53       69.63       69.74       69.86       70.00    
  21  -1000.0       78.16       78.13       78.06       77.95       77.81       77.64       77.44       77.20       76.94    
        76.66       76.36       76.04       75.72       75.41       75.10       74.83       74.61       74.49       74.18    
        73.68       73.26       72.88       72.54       72.22       71.91       71.63       71.37       71.12       70.88    
        70.65       70.42       70.20       69.97       69.72       69.45       69.13       68.75       68.38       68.60    
        68.83       69.01       69.14       69.25       69.34       69.44       69.55       69.67       69.82       70.00    
  22  -1000.0       78.45       78.41       78.35       78.25       78.11       77.95       77.76       77.53       77.28    
        77.01       76.72       76.41       76.09       75.77       75.44       75.15       74.91       74.75       74.40    
        73.86       73.40       72.98       72.61       72.26       71.94       71.64       71.36       71.09       70.84    
        70.60       70.37       70.14       69.90       69.65       69.35       68.98       68.41       67.26       68.25    
        68.68       68.90       69.04       69.16       69.26       69.36       69.48       69.61       69.78       70.00    
  23  -1000.0       78.74       78.71       78.64       78.55       78.42       78.26       78.08       77.86       77.62    
        77.36       77.07       76.76       76.44       76.11       75.76       75.42       75.11       74.80       74.41    
        73.95       73.50       73.07       72.68       72.33       72.01       71.69       71.38       71.09       70.83    
        70.58       70.34       70.11       69.87       69.63       69.35       69.04       68.66       68.28       68.50    
        68.72       68.88       69.01       69.11       69.21       69.31       69.43       69.57       69.76       70.00    
  24  -1000.0       79.04       79.01       78.94       78.85       78.73       78.58       78.40       78.19       77.95    
        77.69       77.41       77.10       76.78       76.42       76.05       75.68       75.30       74.92       74.50    
        74.05       73.60       73.18       72.79       72.46       72.18       71.80       71.45       71.14       70.86    
        70.61       70.37       70.14       69.91       69.68       69.43       69.18       68.94       68.75       68.77    
        68.86       68.95       69.04       69.12       69.21       69.31       69.43       69.58       69.76       70.00    
  25  -1000.0       79.34       79.31       79.25       79.16       79.04       78.89       78.72       78.52       78.29    
        78.03       77.75       77.44       77.10       76.74       76.34       75.93       75.52       75.10       74.66    
        74.21       73.76       73.34       72.96       72.66       72.57       71.98       71.58       71.26       70.97    
        70.71       70.48       70.25       70.03       69.81       69.60       69.40       69.22       69.09       69.05    
        69.07       69.11       69.16       69.23       69.30       69.40       69.52       69.66       69.84       70.00    
  26  -1000.0       79.33       79.30       79.24       79.16       79.04       78.90       78.72       78.52       78.30    
        78.04       77.76       77.45       77.10       76.73       76.31       75.89       75.45       75.01       74.56    
        74.10       73.65       73.22       72.83       72.48       72.18       71.78       71.42       71.10       70.82    
        70.56       70.32       70.10       69.89       69.69       69.50       69.32       69.17       69.06       69.00    
        68.98       68.99       69.02       69.07       69.13       69.22       69.34       69.50       69.71       70.00    
  27  -1000.0       79.33       79.30       79.24       79.16       79.04       78.90       78.73       78.53       78.31    
        78.06       77.77       77.46       77.12       76.74       76.32       75.90       75.46       75.01       74.56    
        74.10       73.65       73.22       72.81       72.42       72.07       71.71       71.38       71.07       70.79    
        70.54       70.31       70.09       69.89       69.70       69.52       69.36       69.23       69.12       69.05    
        69.01       69.00       69.01       69.04       69.09       69.17       69.29       69.45       69.67       70.00    
  28  -1000.0       79.33       79.30       79.24       79.16       79.05       78.91       78.74       78.54       78.32    
        78.07       77.79       77.48       77.14       76.77       76.36       75.94       75.50       75.06       74.62    
        74.17       73.73       73.30       72.89       72.49       72.11       71.76       71.43       71.14       70.86    
        70.62       70.39       70.17       69.98       69.79       69.63       69.48       69.35       69.24       69.17    
        69.11       69.09       69.08       69.10       69.14       69.21       69.32       69.47       69.69       70.00    
  29  -1000.0       79.33       79.30       79.24       79.16       79.05       78.91       78.75       78.56       78.34    
        78.09       77.81       77.51       77.17       76.80       76.40       75.99       75.57       75.15       74.72    
        74.30       73.88       73.46       73.05       72.65       72.24       71.89       71.56       71.27       71.01    
        70.76       70.53       70.33       70.13       69.96       69.79       69.65       69.52       69.42       69.33    
        69.27       69.23       69.22       69.22       69.25       69.31       69.40       69.54       69.73       70.00    
  30  -1000.0       79.33       79.30       79.25       79.17       79.06       78.92       78.76       78.57       78.35    
        78.11       77.84       77.53       77.20       76.84       76.45       76.05       75.64       75.23       74.83    
        74.42       74.01       73.61       73.21       72.82       72.41       72.06       71.74       71.46       71.19    
        70.95       70.73       70.52       70.33       70.16       70.00       69.85       69.73       69.62       69.53    
        69.46       69.42       69.39       69.38       69.40       69.44       69.52       69.63       69.78       70.00    
  31  -1000.0       79.34       79.31       79.26       79.18       79.07       78.94       78.78       78.59       78.37    
        78.13       77.86       77.56       77.24       76.88       76.50       76.11       75.71       75.32       74.92    
        74.53       74.14       73.75       73.37       72.99       72.60       72.26       71.95       71.67       71.41    
        71.17       70.95       70.74       70.55       70.37       70.21       70.07       69.94       69.83       69.74    
        69.66       69.61       69.57       69.55       69.56       69.59       69.64       69.73       69.84       70.00    
  32  -1000.0       79.34       79.32       79.26       79.19       79.08       78.95       78.79       78.61       78.39    
        78.16       77.89       77.60       77.28       76.93       76.55       76.17       75.79       75.40       75.02    
        74.64       74.26       73.89       73.52       73.15       72.79       72.46       72.16       71.88       71.63    
        71.39       71.16       70.95       70.76       70.58       70.42       70.28       70.14       70.03       69.93    
        69.85       69.79       69.75       69.72       69.71       69.73       69.76       69.82       69.90       70.00    
  33  -1000.0       79.35       79.33       79.27       79.20       79.09       78.96       78.81       78.62       78.41    
        78.18       77.92       77.63       77.31       76.97       76.60       76.23       75.86       75.48       75.11    
        74.74       74.38       74.02       73.66       73.31       72.98       72.66       72.36       72.09       71.83    
        71.59       71.36       71.15       70.96       70.78       70.61       70.47       70.33       70.21       70.11    
        70.02       69.95       69.90       69.86       69.84       69.84       69.86       69.89       69.94       70.00    
  34  -1000.0       79.36       79.33       79.28       79.21       79.10       78.98       78.82       78.64       78.44    
        78.20       77.95       77.66       77.35       77.01       76.65       76.29       75.92       75.56       75.20    
        74.84       74.49       74.14       73.80       73.46       73.14       72.83       72.54       72.27       72.01    
        71.77       71.54       71.33       71.14       70.96       70.79       70.64       70.50       70.38       70.27    
        70.18       70.10       70.04       69.99       69.96       69.94       69.94       69.95       69.97       70.00    
  35  -1000.0       79.37       79.34       79.29       79.22       79.12       78.99       78.84       78.66       78.46    
        78.23       77.97       77.70       77.39       77.06       76.70       76.34       75.99       75.63       75.28    
        74.93       74.59       74.25       73.92       73.60       73.28       72.99       72.70       72.43       72.18    
        71.94       71.71       71.50       71.30       71.12       70.95       70.80       70.66       70.53       70.42    
        70.32       70.23       70.16       70.10       70.06       70.03       70.01       70.00       70.00       70.00    
  36  -1000.0       79.38       79.35       79.30       79.23       79.13       79.00       78.85       78.68       78.48    
        78.25       78.00       77.73       77.43       77.10       76.75       76.40       76.05       75.70       75.36    
        75.02       74.68       74.36       74.03       73.72       73.42       73.12       72.84       72.58       72.33    
        72.09       71.86       71.65       71.45       71.27       71.10       70.94       70.80       70.66       70.55    
        70.44       70.35       70.27       70.20       70.14       70.10       70.07       70.04       70.02       70.00    
  37  -1000.0       79.39       79.36       79.31       79.24       79.14       79.02       78.87       78.69       78.50    
        78.28       78.03       77.76       77.46       77.14       76.79       76.45       76.11       75.77       75.43    
        75.10       74.77       74.45       74.14       73.83       73.53       73.25       72.97       72.71       72.46    
        72.22       72.00       71.79       71.59       71.40       71.23       71.07       70.92       70.79       70.66    
        70.55       70.45       70.36       70.29       70.22       70.16       70.11       70.07       70.03       70.00    
  38  -1000.0       79.40       79.37       79.32       79.25       79.15       79.03       78.88       78.71       78.51    
        78.30       78.05       77.79       77.49       77.18       76.84       76.50       76.16       75.83       75.50    
        75.17       74.85       74.54       74.23       73.93       73.64       73.36       73.09       72.83       72.58    
        72.35       72.12       71.91       71.71       71.53       71.35       71.19       71.03       70.90       70.77    
        70.65       70.54       70.45       70.36       70.29       70.22       70.16       70.10       70.05       70.00    
  39  -1000.0       79.41       79.38       79.33       79.26       79.16       79.04       78.89       78.72       78.53    
        78.31       78.07       77.81       77.52       77.21       76.88       76.54       76.21       75.88       75.56    
        75.24       74.93       74.62       74.32       74.02       73.74       73.46       73.19       72.94       72.69    
        72.46       72.23       72.02       71.82       71.63       71.46       71.29       71.14       70.99       70.86    
        70.74       70.62       70.52       70.43       70.34       70.26       70.19       70.13       70.06       70.00    
  40  -1000.0       79.42       79.39       79.34       79.27       79.17       79.05       78.90       78.73       78.54    
        78.33       78.09       77.83       77.55       77.24       76.91       76.58       76.26       75.93       75.62    
        75.30       74.99       74.69       74.39       74.10       73.82       73.55       73.28       73.03       72.79    
        72.55       72.33       72.12       71.92       71.73       71.55       71.38       71.23       71.08       70.94    
        70.81       70.70       70.59       70.49       70.39       70.31       70.22       70.15       70.07       70.00    
  41  -1000.0       79.43       79.40       79.35       79.27       79.17       79.05       78.91       78.74       78.56    
        78.34       78.11       77.85       77.57       77.27       76.94       76.62       76.30       75.98       75.66    
        75.35       75.05       74.75       74.46       74.17       73.90       73.63       73.36       73.11       72.87    
        72.64       72.42       72.21       72.01       71.82       71.63       71.46       71.30       71.15       71.01    
        70.88       70.76       70.64       70.54       70.44       70.34       70.25       70.17       70.08       70.00    
  42  -1000.0       79.46       79.41       79.35       79.28       79.18       79.05       78.91       78.75       78.56    
        78.35       78.12       77.87       77.59       77.29       76.97       76.65       76.33       76.02       75.71    
        75.40       75.10       74.81       74.52       74.24       73.96       73.69       73.44       73.19       72.95    
        72.72       72.49       72.28       72.08       71.89       71.71       71.54       71.37       71.22       71.08    
        70.94       70.81       70.69       70.58       70.47       70.37       70.27       70.18       70.09       70.00    
  43  -1000.0       79.49       79.44       79.36       79.27       79.17       79.05       78.91       78.75       78.57    
        78.36       78.13       77.88       77.61       77.31       76.99       76.68       76.36       76.05       75.75    
        75.44       75.15       74.85       74.57       74.29       74.02       73.75       73.50       73.25       73.01    
        72.78       72.56       72.35       72.15       71.95       71.77       71.60       71.43       71.28       71.13    
        70.99       70.86       70.73       70.62       70.50       70.40       70.29       70.19       70.10       70.00    
  44  -1000.0       79.51       79.46       79.38       79.27       79.17       79.05       78.91       78.75       78.57    
        78.36       78.14       77.89       77.62       77.33       77.01       76.70       76.39       76.08       75.78    
        75.48       75.18       74.89       74.61       74.33       74.06       73.80       73.55       73.30       73.06    
        72.83       72.61       72.40       72.20       72.01       71.82       71.65       71.48       71.32       71.17    
        71.03       70.90       70.77       70.65       70.53       70.42       70.31       70.21       70.10       70.00    
  45  -1000.0       79.52       79.48       79.40       79.29       79.15       79.03       78.89       78.74       78.56    
        78.36       78.14       77.90       77.63       77.34       77.03       76.72       76.41       76.11       75.80    
        75.51       75.22       74.93       74.65       74.37       74.10       73.84       73.59       73.34       73.11    
        72.88       72.66       72.45       72.25       72.05       71.87       71.69       71.52       71.36       71.21    
        71.07       70.93       70.80       70.67       70.55       70.44       70.32       70.21       70.11       70.00    
  46  -1000.0     -1000.0       79.47       79.40       79.30       79.17       79.01       78.88       78.72       78.55    
        78.36       78.14       77.90       77.64       77.35       77.04       76.73       76.43       76.12       75.83    
        75.53       75.24       74.95       74.68       74.40       74.14       73.88       73.62       73.38       73.14    
        72.91       72.70       72.48       72.28       72.09       71.90       71.72       71.56       71.39       71.24    
        71.09       70.95       70.82       70.69       70.57       70.45       70.33       70.22       70.11       70.00    
  47  -1000.0     -1000.0     -1000.0       79.37       79.29       79.17       79.03       78.85       78.70       78.54    
        78.35       78.14       77.90       77.64       77.36       77.05       76.74       76.44       76.14       75.84    
        75.55       75.26       74.97       74.70       74.42       74.16       73.90       73.65       73.41       73.17    
        72.94       72.72       72.51       72.31       72.11       71.93       71.75       71.58       71.42       71.26    
        71.11       70.97       70.84       70.71       70.58       70.46       70.34       70.23       70.11       70.00    
  48  -1000.0     -1000.0     -1000.0     -1000.0       79.25       79.16       79.03       78.87       78.68       78.52    
        78.34       78.13       77.90       77.65       77.36       77.06       76.75       76.45       76.15       75.85    
        75.56       75.27       74.99       74.71       74.44       74.17       73.92       73.67       73.42       73.19    
        72.96       72.74       72.53       72.33       72.13       71.94       71.77       71.59       71.43       71.28    
        71.13       70.98       70.85       70.72       70.59       70.47       70.35       70.23       70.11       70.00    
  49  -1000.0     -1000.0     -1000.0     -1000.0     -1000.0       79.13       79.03       78.88       78.70       78.49    
        78.33       78.13       77.90       77.65       77.37       77.06       76.75       76.45       76.15       75.86    
        75.56       75.28       74.99       74.72       74.45       74.18       73.92       73.67       73.43       73.20    
        72.97       72.75       72.54       72.33       72.14       71.95       71.77       71.60       71.44       71.28    
        71.13       70.99       70.85       70.72       70.59       70.47       70.35       70.23       70.12       70.00    
  50  -1000.0     -1000.0     -1000.0     -1000.0     -1000.0     -1000.0     -1000.0     -1000.0     -1000.0     -1000.0    
      -1000.0     -1000.0     -1000.0     -1000.0     -1000.0     -1000.0     -1000.0     -1000.0     -1000.0     -1000.0    
      -1000.0     -1000.0     -1000.0     -1000.0     -1000.0     -1000.0     -1000.0     -1000.0     -1000.0     -1000.0    
      -1000.0     -1000.0     -1000.0     -1000.0     -1000.0     -1000.0     -1000.0     -1000.0     -1000.0     -1000.0    
      -1000.0     -1000.0     -1000.0     -1000.0     -1000.0     -1000.0     -1000.0     -1000.0     -1000.0       70.00    
1
              HEAD IN LAYER   2 AT END OF TIME STEP   1 IN STRESS PERIOD    1
  ---------------------------------------------------------------------------

            1           2           3           4           5           6           7           8           9          10
           11          12          13          14          15          16          17          18          19          20
           21          22          23          24          25          26          27          28          29          30
           31          32          33          34          35          36          37          38          39          40
           41          42          43          44          45          46          47          48          49          50
 ........................................................................................................................
   1  -1000.0     -1000.0     -1000.0     -1000.0     -1000.0     -1000.0     -1000.0     -1000.0     -1000.0     -1000.0    
      -1000.0     -1000.0     -1000.0     -1000.0     -1000.0     -1000.0     -1000.0     -1000.0     -1000.0     -1000.0    
      -1000.0     -1000.0     -1000.0     -1000.0     -1000.0     -1000.0     -1000.0     -1000.0     -1000.0     -1000.0    
      -1000.0     -1000.0     -1000.0     -1000.0     -1000.0     -1000.0     -1000.0     -1000.0     -1000.0     -1000.0    
      -1000.0     -1000.0     -1000.0     -1000.0     -1000.0     -1000.0     -1000.0     -1000.0     -1000.0       70.00    
   2  -1000.0     -1000.0     -1000.0     -1000.0     -1000.0     -1000.0     -1000.0       74.82       74.60       74.35    
        74.18       73.97       73.75       73.52       73.28       73.04       72.82       72.62       72.44       72.28    
        72.14       72.01       71.88       71.77       71.66       71.56       71.46       71.36       71.26       71.17    
        71.08       70.99       70.90       70.82       70.74       70.67       70.59       70.53       70.46       70.40    
        70.35       70.30       70.25       70.21       70.17       70.13       70.10       70.06       70.03       70.00    
   3  -1000.0     -1000.0     -1000.0     -1000.0     -1000.0     -1000.0       75.02       74.81       74.57       74.38    
        74.18       73.96       73.74       73.50       73.26       73.01       72.79       72.60       72.42       72.27    
        72.13       72.00       71.88       71.76       71.66       71.55       71.45       71.35       71.26       71.17    
        71.07       70.99       70.90       70.82       70.74       70.66       70.59       70.52       70.46       70.40    
        70.35       70.30       70.25       70.21       70.17       70.13       70.09       70.06       70.03       70.00    
   4  -1000.0     -1000.0     -1000.0     -1000.0     -1000.0       75.23       75.03       74.79       74.60       74.39    
        74.17       73.94       73.70       73.45       73.21       72.96       72.74       72.55       72.38       72.24    
        72.10       71.98       71.86       71.75       71.65       71.55       71.45       71.35       71.25       71.16    
        71.07       70.98       70.89       70.81       70.73       70.65       70.58       70.51       70.45       70.39    
        70.34       70.29       70.24       70.20       70.16       70.12       70.09       70.06       70.03       70.00    
   5  -1000.0     -1000.0     -1000.0     -1000.0       75.44       75.25       75.02       74.83       74.62       74.39    
        74.15       73.90       73.64       73.38       73.13       72.88       72.67       72.49       72.33       72.19    
        72.06       71.95       71.84       71.74       71.64       71.54       71.44       71.34       71.25       71.15    
        71.06       70.97       70.88       70.80       70.72       70.64       70.57       70.50       70.44       70.38    
        70.32       70.28       70.23       70.19       70.15       70.12       70.09       70.06       70.03       70.00    
   6  -1000.0     -1000.0     -1000.0       75.64       75.47       75.25       75.07       74.86       74.63       74.38    
        74.11       73.83       73.55       73.28       73.02       72.77       72.57       72.40       72.25       72.13    
        72.02       71.91       71.82       71.72       71.62       71.53       71.43       71.33       71.24       71.14    
        71.05       70.96       70.87       70.78       70.70       70.62       70.55       70.48       70.42       70.36    
        70.31       70.26       70.22       70.18       70.14       70.11       70.08       70.05       70.03       70.00    
   7  -1000.0     -1000.0       75.80       75.67       75.48       75.31       75.11       74.88       74.63       74.35    
        74.05       73.74       73.43       73.13       72.86       72.61       72.42       72.28       72.16       72.06    
        71.96       71.88       71.79       71.70       71.61       71.52       71.42       71.33       71.23       71.13    
        71.04       70.95       70.85       70.77       70.68       70.60       70.53       70.46       70.40       70.34    
        70.28       70.24       70.20       70.16       70.13       70.10       70.07       70.04       70.02       70.00    
   8  -1000.0       75.92       75.84       75.70       75.55       75.37       75.15       74.91       74.63       74.32    
        73.98       73.62       73.27       72.93       72.64       72.40       72.24       72.13       72.04       71.97    
        71.90       71.83       71.76       71.68       71.60       71.51       71.41       71.32       71.22       71.12    
        71.02       70.93       70.84       70.75       70.66       70.58       70.50       70.43       70.37       70.31    
        70.26       70.21       70.17       70.14       70.11       70.08       70.06       70.04       70.02       70.00    
   9  -1000.0       75.97       75.89       75.78       75.62       75.43       75.20       74.94       74.63       74.28    
        73.89       73.48       73.06       72.66       72.34       72.12       72.01       71.95       71.92       71.89    
        71.85       71.80       71.74       71.67       71.59       71.50       71.41       71.31       71.21       71.11    
        71.01       70.91       70.81       70.72       70.63       70.55       70.47       70.40       70.33       70.27    
        70.22       70.18       70.14       70.11       70.08       70.06       70.04       70.03       70.01       70.00    
  10  -1000.0       76.04       75.97       75.86       75.70       75.51       75.27       74.98       74.64       74.25    
        73.81       73.31       72.79       72.28       71.89       71.73       71.71       71.75       71.79       71.81    
        71.80       71.78       71.73       71.66       71.59       71.50       71.40       71.30       71.20       71.10    
        70.99       70.89       70.79       70.69       70.60       70.51       70.43       70.36       70.29       70.23    
        70.18       70.14       70.11       70.08       70.06       70.04       70.03       70.02       70.01       70.00    
  11  -1000.0       76.12       76.06       75.95       75.80       75.60       75.35       75.04       74.68       74.25    
        73.74       73.15       72.47       71.76       71.19       71.19       71.37       71.55       71.68       71.75    
        71.78       71.77       71.73       71.67       71.60       71.51       71.41       71.30       71.19       71.08    
        70.97       70.86       70.76       70.65       70.56       70.46       70.38       70.31       70.24       70.18    
        70.13       70.10       70.06       70.04       70.02       70.01       70.01       70.00       70.00       70.00    
  12  -1000.0       76.23       76.17       76.07       75.92       75.71       75.46       75.14       74.76       74.29    
        73.73       73.03       72.15       71.04       69.89       70.46       71.02       71.40       71.62       71.74    
        71.79       71.80       71.76       71.70       71.62       71.52       71.42       71.31       71.19       71.07    
        70.95       70.84       70.72       70.61       70.51       70.41       70.33       70.25       70.18       70.12    
        70.08       70.04       70.02       70.00       69.99       69.98       69.98       69.99       69.99       70.00    
  13  -1000.0       76.36       76.31       76.21       76.06       75.86       75.60       75.28       74.88       74.41    
        73.81       73.06       72.01       70.32       66.74       69.72       70.86       71.39       71.67       71.80    
        71.86       71.86       71.81       71.74       71.65       71.55       71.43       71.31       71.19       71.06    
        70.93       70.81       70.68       70.57       70.45       70.35       70.26       70.18       70.11       70.05    
        70.01       69.98       69.96       69.95       69.94       69.95       69.96       69.97       69.98       70.00    
  14  -1000.0       76.52       76.47       76.37       76.23       76.03       75.77       75.45       75.07       74.60    
        74.04       73.33       72.45       71.34       70.18       70.74       71.28       71.64       71.85       71.95    
        71.98       71.96       71.90       71.81       71.70       71.58       71.46       71.32       71.18       71.05    
        70.91       70.77       70.64       70.51       70.39       70.28       70.18       70.10       70.02       69.97    
        69.93       69.90       69.89       69.89       69.89       69.91       69.92       69.95       69.97       70.00    
  15  -1000.0       76.70       76.66       76.56       76.42       76.22       75.98       75.67       75.31       74.87    
        74.36       73.75       73.07       72.35       71.77       71.74       71.89       72.04       72.13       72.17    
        72.15       72.09       72.01       71.89       71.77       71.63       71.48       71.33       71.18       71.03    
        70.88       70.73       70.59       70.45       70.32       70.20       70.09       70.00       69.93       69.87    
        69.84       69.82       69.81       69.82       69.83       69.86       69.89       69.92       69.96       70.00    
  16  -1000.0       76.91       76.86       76.77       76.63       76.45       76.21       75.92       75.58       75.19    
        74.73       74.23       73.68       73.16       72.75       72.55       72.50       72.49       72.48       72.44    
        72.36       72.26       72.14       71.99       71.84       71.68       71.52       71.35       71.18       71.02    
        70.85       70.69       70.53       70.38       70.24       70.10       69.98       69.88       69.81       69.75    
        69.72       69.72       69.72       69.74       69.77       69.81       69.85       69.90       69.95       70.00    
  17  -1000.0       77.13       77.08       77.00       76.87       76.69       76.47       76.20       75.89       75.53    
        75.13       74.70       74.25       73.83       73.47       73.21       73.06       72.95       72.85       72.73    
        72.60       72.45       72.28       72.11       71.92       71.74       71.55       71.36       71.18       71.00    
        70.82       70.64       70.47       70.31       70.15       69.99       69.86       69.74       69.66       69.61    
        69.59       69.60       69.62       69.65       69.70       69.75       69.80       69.86       69.93       70.00    
  18  -1000.0       77.37       77.33       77.24       77.12       76.95       76.75       76.50       76.21       75.88    
        75.53       75.15       74.76       74.39       74.06       73.78       73.56       73.39       73.22       73.05    
        72.86       72.65       72.44       72.22       72.01       71.79       71.58       71.38       71.17       70.98    
        70.78       70.59       70.41       70.22       70.04       69.87       69.71       69.57       69.48       69.44    
        69.44       69.47       69.51       69.56       69.62       69.68       69.75       69.83       69.91       70.00    
  19  -1000.0       77.62       77.58       77.50       77.39       77.23       77.04       76.80       76.54       76.24    
        75.91       75.57       75.22       74.88       74.56       74.27       74.02       73.81       73.61       73.39    
        73.13       72.86       72.60       72.34       72.09       71.85       71.61       71.38       71.16       70.95    
        70.74       70.54       70.34       70.14       69.93       69.73       69.53       69.36       69.25       69.22    
        69.26       69.32       69.38       69.46       69.53       69.61       69.69       69.79       69.89       70.00    
  20  -1000.0       77.89       77.85       77.77       77.66       77.52       77.33       77.12       76.87       76.59    
        76.29       75.97       75.65       75.32       75.01       74.70       74.44       74.22       74.02       73.75    
        73.41       73.07       72.75       72.45       72.16       71.89       71.63       71.38       71.15       70.92    
        70.70       70.48       70.27       70.05       69.82       69.58       69.34       69.09       68.92       68.95    
        69.05       69.16       69.26       69.35       69.44       69.53       69.63       69.74       69.86       70.00    
  21  -1000.0       78.16       78.13       78.06       77.95       77.81       77.64       77.44       77.20       76.94    
        76.66       76.36       76.04       75.72       75.41       75.10       74.83       74.61       74.49       74.18    
        73.68       73.26       72.88       72.54       72.22       71.91       71.63       71.37       71.12       70.88    
        70.65       70.42       70.20       69.97       69.72       69.45       69.13       68.75       68.38       68.60    
        68.83       69.01       69.14       69.25       69.34       69.44       69.55       69.67       69.82       70.00    
  22  -1000.0       78.45       78.41       78.35       78.25       78.11       77.95       77.76       77.53       77.28    
        77.01       76.72       76.41       76.09       75.77       75.44       75.15       74.91       74.75       74.40    
        73.86       73.40       72.98       72.61       72.26       71.94       71.64       71.36       71.09       70.84    
        70.60       70.37       70.14       69.90       69.65       69.35       68.98       68.41       67.23       68.25    
        68.68       68.90       69.04       69.16       69.26       69.36       69.48       69.61       69.78       70.00    
  23  -1000.0       78.74       78.71       78.64       78.55       78.42       78.26       78.08       77.86       77.62    
        77.36       77.07       76.76       76.44       76.11       75.76       75.42       75.11       74.80       74.41    
        73.95       73.50       73.07       72.68       72.33       72.01       71.69       71.38       71.09       70.83    
        70.58       70.34       70.11       69.87       69.63       69.35       69.04       68.66       68.28       68.50    
        68.72       68.88       69.01       69.11       69.21       69.31       69.43       69.57       69.76       70.00    
  24  -1000.0       79.04       79.01       78.94       78.85       78.73       78.58       78.40       78.19       77.95    
        77.69       77.41       77.10       76.77       76.42       76.05       75.68       75.30       74.92       74.50    
        74.05       73.61       73.18       72.80       72.46       72.18       71.80       71.45       71.14       70.86    
        70.61       70.37       70.14       69.91       69.68       69.43       69.18       68.94       68.75       68.77    
        68.86       68.95       69.04       69.13       69.21       69.31       69.43       69.58       69.76       70.00    
  25  -1000.0       79.34       79.31       79.25       79.16       79.04       78.89       78.72       78.52       78.29    
        78.03       77.75       77.44       77.10       76.74       76.34       75.93       75.52       75.10       74.66    
        74.21       73.76       73.34       72.96       72.66       72.56       71.98       71.58       71.25       70.97    
        70.71       70.47       70.25       70.03       69.81       69.60       69.40       69.21       69.09       69.05    
        69.06       69.11       69.16       69.23       69.30       69.40       69.51       69.66       69.84       70.00    
  26  -1000.0       79.33       79.30       79.24       79.16       79.04       78.90       78.72       78.52       78.30    
        78.04       77.76       77.45       77.10       76.73       76.31       75.89       75.45       75.01       74.56    
        74.10       73.65       73.22       72.83       72.48       72.18       71.78       71.42       71.10       70.82    
        70.56       70.33       70.10       69.89       69.69       69.50       69.33       69.17       69.06       69.00    
        68.98       68.99       69.02       69.07       69.13       69.22       69.34       69.50       69.71       70.00    
  27  -1000.0       79.33       79.30       79.24       79.16       79.04       78.90       78.73       78.53       78.31    
        78.06       77.77       77.46       77.12       76.74       76.32       75.90       75.46       75.01       74.56    
        74.10       73.65       73.22       72.81       72.42       72.07       71.71       71.38       71.07       70.79    
        70.54       70.31       70.09       69.89       69.70       69.52       69.36       69.23       69.12       69.05    
        69.01       69.00       69.01       69.04       69.09       69.17       69.29       69.45       69.68       70.00    
  28  -1000.0       79.33       79.30       79.24       79.16       79.05       78.91       78.74       78.54       78.32    
        78.07       77.79       77.48       77.14       76.77       76.36       75.94       75.50       75.06       74.62    
        74.17       73.73       73.30       72.89       72.49       72.11       71.76       71.43       71.14       70.86    
        70.62       70.39       70.17       69.98       69.79       69.63       69.48       69.35       69.24       69.17    
        69.12       69.09       69.08       69.10       69.14       69.21       69.32       69.47       69.69       70.00    
  29  -1000.0       79.33       79.30       79.24       79.16       79.05       78.91       78.75       78.56       78.34    
        78.09       77.81       77.51       77.17       76.80       76.40       75.99       75.57       75.15       74.72    
        74.30       73.88       73.46       73.05       72.65       72.24       71.89       71.56       71.27       71.01    
        70.76       70.54       70.33       70.13       69.96       69.79       69.65       69.52       69.42       69.33    
        69.27       69.23       69.22       69.22       69.25       69.31       69.40       69.54       69.73       70.00    
  30  -1000.0       79.33       79.30       79.25       79.17       79.06       78.92       78.76       78.57       78.35    
        78.11       77.84       77.53       77.20       76.84       76.45       76.05       75.64       75.23       74.83    
        74.42       74.01       73.61       73.21       72.82       72.41       72.06       71.74       71.46       71.19    
        70.95       70.73       70.52       70.33       70.16       70.00       69.85       69.73       69.62       69.53    
        69.46       69.42       69.39       69.38       69.40       69.44       69.52       69.63       69.78       70.00    
  31  -1000.0       79.34       79.31       79.26       79.18       79.07       78.94       78.78       78.59       78.37    
        78.13       77.86       77.56       77.24       76.88       76.50       76.11       75.71       75.32       74.92    
        74.53       74.14       73.75       73.37       72.99       72.60       72.26       71.95       71.67       71.41    
        71.17       70.95       70.74       70.55       70.37       70.21       70.07       69.94       69.83       69.74    
        69.66       69.61       69.57       69.56       69.56       69.59       69.64       69.73       69.84       70.00    
  32  -1000.0       79.34       79.32       79.26       79.19       79.08       78.95       78.79       78.61       78.39    
        78.16       77.89       77.60       77.28       76.93       76.55       76.17       75.79       75.40       75.02    
        74.64       74.26       73.89       73.52       73.15       72.79       72.46       72.16       71.88       71.63    
        71.39       71.16       70.95       70.76       70.58       70.42       70.28       70.14       70.03       69.93    
        69.85       69.79       69.75       69.72       69.71       69.73       69.76       69.82       69.90       70.00    
  33  -1000.0       79.35       79.33       79.27       79.20       79.09       78.96       78.81       78.62       78.41    
        78.18       77.92       77.63       77.31       76.97       76.60       76.23       75.86       75.48       75.11    
        74.74       74.38       74.02       73.66       73.31       72.98       72.66       72.36       72.09       71.83    
        71.59       71.36       71.15       70.96       70.78       70.61       70.47       70.33       70.21       70.11    
        70.02       69.95       69.90       69.86       69.84       69.84       69.86       69.89       69.94       70.00    
  34  -1000.0       79.36       79.33       79.28       79.21       79.10       78.98       78.82       78.64       78.44    
        78.20       77.95       77.66       77.35       77.01       76.65       76.29       75.92       75.56       75.20    
        74.84       74.49       74.14       73.80       73.46       73.14       72.83       72.54       72.27       72.01    
        71.77       71.54       71.33       71.14       70.96       70.79       70.64       70.50       70.38       70.27    
        70.18       70.10       70.04       69.99       69.96       69.94       69.94       69.95       69.97       70.00    
  35  -1000.0       79.37       79.34       79.29       79.22       79.12       78.99       78.84       78.66       78.46    
        78.23       77.97       77.70       77.39       77.06       76.70       76.34       75.99       75.63       75.28    
        74.93       74.59       74.25       73.92       73.60       73.28       72.99       72.70       72.43       72.18    
        71.94       71.71       71.50       71.30       71.12       70.95       70.80       70.66       70.53       70.42    
        70.32       70.23       70.16       70.10       70.06       70.03       70.01       70.00       70.00       70.00    
  36  -1000.0       79.38       79.35       79.30       79.23       79.13       79.00       78.85       78.68       78.48    
        78.25       78.00       77.73       77.43       77.10       76.75       76.40       76.05       75.70       75.36    
        75.02       74.68       74.36       74.03       73.72       73.42       73.12       72.84       72.58       72.33    
        72.09       71.86       71.65       71.45       71.27       71.10       70.94       70.80       70.66       70.55    
        70.44       70.35       70.27       70.20       70.14       70.10       70.07       70.04       70.02       70.00    
  37  -1000.0       79.39       79.36       79.31       79.24       79.14       79.02       78.87       78.69       78.50    
        78.28       78.03       77.76       77.46       77.14       76.79       76.45       76.11       75.77       75.43    
        75.10       74.77       74.45       74.14       73.83       73.53       73.25       72.97       72.71       72.46    
        72.22       72.00       71.79       71.59       71.40       71.23       71.07       70.92       70.79       70.66    
        70.55       70.45       70.36       70.29       70.22       70.16       70.11       70.07       70.03       70.00    
  38  -1000.0       79.40       79.37       79.32       79.25       79.15       79.03       78.88       78.71       78.51    
        78.30       78.05       77.79       77.49       77.18       76.84       76.50       76.16       75.83       75.50    
        75.17       74.85       74.54       74.23       73.93       73.64       73.36       73.09       72.83       72.58    
        72.35       72.12       71.91       71.71       71.53       71.35       71.19       71.03       70.90       70.77    
        70.65       70.54       70.45       70.36       70.29       70.22       70.16       70.10       70.05       70.00    
  39  -1000.0       79.41       79.38       79.33       79.26       79.16       79.04       78.89       78.72       78.53    
        78.31       78.07       77.81       77.52       77.21       76.88       76.54       76.21       75.88       75.56    
        75.24       74.93       74.62       74.32       74.02       73.74       73.46       73.19       72.94       72.69    
        72.46       72.23       72.02       71.82       71.63       71.46       71.29       71.14       70.99       70.86    
        70.74       70.62       70.52       70.43       70.34       70.26       70.19       70.13       70.06       70.00    
  40  -1000.0       79.42       79.39       79.34       79.27       79.17       79.05       78.90       78.73       78.54    
        78.33       78.09       77.83       77.55       77.24       76.91       76.58       76.26       75.93       75.62    
        75.30       74.99       74.69       74.39       74.10       73.82       73.55       73.28       73.03       72.79    
        72.55       72.33       72.12       71.92       71.73       71.55       71.38       71.23       71.08       70.94    
        70.81       70.70       70.59       70.49       70.39       70.31       70.22       70.15       70.07       70.00    
  41  -1000.0       79.43       79.40       79.35       79.27       79.17       79.05       78.91       78.74       78.56    
        78.34       78.11       77.85       77.57       77.27       76.94       76.62       76.30       75.98       75.66    
        75.35       75.05       74.75       74.46       74.17       73.90       73.63       73.36       73.11       72.87    
        72.64       72.42       72.21       72.01       71.82       71.63       71.46       71.30       71.15       71.01    
        70.88       70.76       70.64       70.54       70.44       70.34       70.25       70.17       70.08       70.00    
  42  -1000.0       79.46       79.41       79.35       79.28       79.18       79.05       78.91       78.75       78.56    
        78.35       78.12       77.87       77.59       77.29       76.97       76.65       76.33       76.02       75.71    
        75.40       75.10       74.81       74.52       74.24       73.96       73.69       73.44       73.19       72.95    
        72.72       72.49       72.28       72.08       71.89       71.71       71.54       71.37       71.22       71.08    
        70.94       70.81       70.69       70.58       70.47       70.37       70.27       70.18       70.09       70.00    
  43  -1000.0       79.49       79.44       79.36       79.27       79.17       79.05       78.91       78.75       78.57    
        78.36       78.13       77.88       77.61       77.31       76.99       76.68       76.36       76.05       75.75    
        75.44       75.15       74.85       74.57       74.29       74.02       73.75       73.50       73.25       73.01    
        72.78       72.56       72.35       72.15       71.95       71.77       71.60       71.43       71.28       71.13    
        70.99       70.86       70.73       70.62       70.50       70.40       70.29       70.19       70.10       70.00    
  44  -1000.0     -1000.0       79.46       79.38       79.27       79.17       79.05       78.91       78.75       78.57    
        78.36       78.14       77.89       77.62       77.33       77.01       76.70       76.39       76.08       75.78    
        75.48       75.18       74.89       74.61       74.33       74.06       73.80       73.55       73.30       73.06    
        72.83       72.61       72.40       72.20       72.01       71.82       71.65       71.48       71.32       71.17    
        71.03       70.90       70.77       70.65       70.53       70.42       70.31       70.21       70.10       70.00    
  45  -1000.0     -1000.0     -1000.0       79.40       79.29       79.15       79.03       78.89       78.74       78.56    
        78.36       78.14       77.90       77.63       77.34       77.03       76.72       76.41       76.11       75.80    
        75.51       75.22       74.93       74.65       74.37       74.10       73.84       73.59       73.34       73.11    
        72.88       72.66       72.45       72.25       72.05       71.87       71.69       71.52       71.36       71.21    
        71.07       70.93       70.80       70.67       70.55       70.44       70.32       70.21       70.11       70.00    
  46  -1000.0     -1000.0     -1000.0     -1000.0       79.30       79.17       79.01       78.88       78.72       78.55    
        78.36       78.14       77.90       77.64       77.35       77.04       76.73       76.43       76.12       75.83    
        75.53       75.24       74.95       74.68       74.40       74.14       73.88       73.62       73.38       73.14    
        72.91       72.70       72.48       72.28       72.09       71.90       71.72       71.55       71.39       71.24    
        71.09       70.95       70.82       70.69       70.57       70.45       70.33       70.22       70.11       70.00    
  47  -1000.0     -1000.0     -1000.0     -1000.0     -1000.0       79.17       79.03       78.85       78.70       78.54    
        78.35       78.14       77.90       77.64       77.36       77.05       76.74       76.44       76.14       75.84    
        75.55       75.26       74.97       74.70       74.42       74.16       73.90       73.65       73.41       73.17    
        72.94       72.72       72.51       72.31       72.11       71.93       71.75       71.58       71.42       71.26    
        71.11       70.97       70.84       70.71       70.58       70.46       70.34       70.23       70.11       70.00    
  48  -1000.0     -1000.0     -1000.0     -1000.0     -1000.0     -1000.0       79.03       78.87       78.68       78.52    
        78.34       78.13       77.90       77.65       77.36       77.06       76.75       76.45       76.15       75.85    
        75.56       75.27       74.99       74.71       74.44       74.17       73.92       73.67       73.42       73.19    
        72.96       72.74       72.53       72.33       72.13       71.94       71.77       71.59       71.43       71.28    
        71.13       70.98       70.85       70.72       70.59       70.47       70.35       70.23       70.11       70.00    
  49  -1000.0     -1000.0     -1000.0     -1000.0     -1000.0     -1000.0     -1000.0       78.88       78.70       78.49    
        78.33       78.13       77.90       77.65       77.37       77.06       76.75       76.45       76.15       75.86    
        75.56       75.28       74.99       74.72       74.45       74.18       73.92       73.67       73.43       73.20    
        72.97       72.75       72.54       72.33       72.14       71.95       71.77       71.60       71.44       71.28    
        71.13       70.99       70.85       70.72       70.59       70.47       70.35       70.23       70.12       70.00    
  50  -1000.0     -1000.0     -1000.0     -1000.0     -1000.0     -1000.0     -1000.0     -1000.0     -1000.0     -1000.0    
      -1000.0     -1000.0     -1000.0     -1000.0     -1000.0     -1000.0     -1000.0     -1000.0     -1000.0     -1000.0    
      -1000.0     -1000.0     -1000.0     -1000.0     -1000.0     -1000.0     -1000.0     -1000.0     -1000.0     -1000.0    
      -1000.0     -1000.0     -1000.0     -1000.0     -1000.0     -1000.0     -1000.0     -1000.0     -1000.0     -1000.0    
      -1000.0     -1000.0     -1000.0     -1000.0     -1000.0     -1000.0     -1000.0     -1000.0     -1000.0       70.00    
1
              HEAD IN LAYER   3 AT END OF TIME STEP   1 IN STRESS PERIOD    1
  ---------------------------------------------------------------------------

            1           2           3           4           5           6           7           8           9          10
           11          12          13          14          15          16          17          18          19          20
           21          22          23          24          25          26          27          28          29          30
           31          32          33          34          35          36          37          38          39          40
[...]
        73.95       73.50       73.07       72.68       72.33       72.02       71.69       71.38       71.09       70.83    
        70.58       70.34       70.11       69.87       69.63       69.35       69.04       68.66       68.28       68.50    
        68.72       68.88       69.01       69.11       69.21       69.31       69.43       69.58       69.76       70.00    
  24  -1000.0       79.04       79.01       78.94       78.85       78.73       78.58       78.40       78.19       77.95    
        77.69       77.41       77.10       76.77       76.42       76.05       75.68       75.30       74.92       74.50    
        74.05       73.61       73.18       72.80       72.46       72.18       71.80       71.45       71.14       70.86    
        70.61       70.37       70.14       69.91       69.68       69.44       69.18       68.94       68.76       68.78    
        68.86       68.95       69.04       69.13       69.21       69.31       69.43       69.58       69.76       70.00    
  25  -1000.0       79.34       79.31       79.25       79.16       79.04       78.89       78.72       78.52       78.29    
        78.03       77.75       77.44       77.10       76.74       76.34       75.93       75.52       75.10       74.66    
        74.20       73.76       73.34       72.96       72.66       72.55       71.98       71.58       71.25       70.97    
        70.71       70.47       70.24       70.02       69.81       69.60       69.39       69.21       69.08       69.04    
        69.06       69.10       69.16       69.22       69.30       69.39       69.51       69.66       69.83       70.00    
  26  -1000.0       79.33       79.30       79.24       79.16       79.04       78.90       78.72       78.52       78.30    
        78.04       77.76       77.45       77.10       76.73       76.31       75.89       75.45       75.01       74.56    
        74.10       73.66       73.23       72.83       72.48       72.18       71.78       71.42       71.11       70.82    
        70.57       70.33       70.11       69.90       69.69       69.50       69.33       69.18       69.07       69.00    
        68.99       69.00       69.02       69.07       69.14       69.22       69.34       69.50       69.71       70.00    
  27  -1000.0       79.33       79.30       79.24       79.16       79.04       78.90       78.73       78.53       78.31    
        78.06       77.77       77.46       77.12       76.74       76.32       75.90       75.46       75.01       74.56    
        74.10       73.65       73.22       72.81       72.43       72.07       71.72       71.38       71.07       70.80    
        70.54       70.31       70.09       69.89       69.70       69.52       69.36       69.23       69.12       69.05    
        69.01       69.00       69.01       69.04       69.09       69.17       69.29       69.45       69.68       70.00    
  28  -1000.0       79.33       79.30       79.24       79.16       79.05       78.91       78.74       78.54       78.32    
        78.07       77.79       77.48       77.14       76.77       76.36       75.94       75.50       75.06       74.62    
        74.18       73.74       73.30       72.89       72.49       72.11       71.76       71.44       71.14       70.87    
        70.62       70.39       70.18       69.98       69.80       69.63       69.48       69.35       69.25       69.17    
        69.12       69.09       69.08       69.10       69.14       69.21       69.32       69.47       69.69       70.00    
  29  -1000.0       79.33       79.30       79.24       79.16       79.05       78.91       78.75       78.56       78.34    
        78.09       77.81       77.51       77.17       76.80       76.40       75.99       75.57       75.15       74.72    
        74.30       73.88       73.46       73.05       72.65       72.24       71.89       71.57       71.27       71.01    
        70.76       70.54       70.33       70.13       69.96       69.79       69.65       69.52       69.42       69.33    
        69.27       69.24       69.22       69.22       69.25       69.31       69.40       69.54       69.73       70.00    
  30  -1000.0       79.33       79.30       79.25       79.17       79.06       78.92       78.76       78.57       78.35    
        78.11       77.84       77.53       77.20       76.84       76.45       76.05       75.64       75.23       74.83    
        74.42       74.01       73.61       73.21       72.82       72.41       72.06       71.75       71.46       71.20    
        70.95       70.73       70.52       70.33       70.16       70.00       69.85       69.73       69.62       69.53    
        69.46       69.42       69.39       69.38       69.40       69.44       69.52       69.63       69.79       70.00    
  31  -1000.0       79.34       79.31       79.26       79.18       79.07       78.94       78.78       78.59       78.37    
        78.13       77.86       77.56       77.24       76.88       76.50       76.11       75.71       75.32       74.92    
        74.53       74.14       73.75       73.37       72.99       72.60       72.26       71.95       71.67       71.41    
        71.17       70.95       70.74       70.55       70.37       70.21       70.07       69.94       69.83       69.74    
        69.66       69.61       69.57       69.56       69.56       69.59       69.64       69.73       69.84       70.00    
  32  -1000.0       79.34       79.32       79.26       79.19       79.08       78.95       78.79       78.61       78.39    
        78.16       77.89       77.60       77.28       76.93       76.55       76.17       75.79       75.40       75.02    
        74.64       74.26       73.89       73.52       73.15       72.79       72.47       72.16       71.88       71.63    
        71.39       71.16       70.95       70.76       70.58       70.42       70.28       70.14       70.03       69.93    
        69.85       69.79       69.75       69.72       69.71       69.73       69.76       69.82       69.90       70.00    
  33  -1000.0       79.35       79.33       79.27       79.20       79.09       78.96       78.81       78.62       78.41    
        78.18       77.92       77.63       77.31       76.97       76.60       76.23       75.86       75.48       75.11    
        74.74       74.38       74.02       73.66       73.31       72.98       72.66       72.36       72.09       71.83    
        71.59       71.36       71.15       70.96       70.78       70.61       70.47       70.33       70.21       70.11    
        70.02       69.95       69.90       69.86       69.84       69.84       69.86       69.89       69.94       70.00    
  34  -1000.0       79.36       79.33       79.28       79.21       79.10       78.98       78.82       78.64       78.44    
        78.20       77.95       77.66       77.35       77.01       76.65       76.29       75.92       75.56       75.20    
        74.84       74.49       74.14       73.80       73.46       73.14       72.83       72.54       72.27       72.01    
        71.77       71.54       71.33       71.14       70.96       70.79       70.64       70.50       70.38       70.27    
        70.18       70.10       70.04       69.99       69.96       69.94       69.94       69.95       69.97       70.00    
  35  -1000.0       79.37       79.34       79.29       79.22       79.12       78.99       78.84       78.66       78.46    
        78.23       77.97       77.70       77.39       77.06       76.70       76.34       75.99       75.63       75.28    
        74.93       74.59       74.25       73.92       73.60       73.28       72.99       72.70       72.43       72.18    
        71.94       71.71       71.50       71.30       71.12       70.95       70.80       70.66       70.53       70.42    
        70.32       70.23       70.16       70.10       70.06       70.03       70.01       70.00       70.00       70.00    
  36  -1000.0       79.38       79.35       79.30       79.23       79.13       79.00       78.85       78.68       78.48    
        78.25       78.00       77.73       77.43       77.10       76.75       76.40       76.05       75.70       75.36    
        75.02       74.68       74.36       74.03       73.72       73.42       73.12       72.84       72.58       72.33    
        72.09       71.86       71.65       71.45       71.27       71.10       70.94       70.80       70.66       70.55    
        70.44       70.35       70.27       70.20       70.14       70.10       70.07       70.04       70.02       70.00    
  37  -1000.0       79.39       79.36       79.31       79.24       79.14       79.02       78.87       78.69       78.50    
        78.28       78.03       77.76       77.46       77.14       76.79       76.45       76.11       75.77       75.43    
        75.10       74.77       74.45       74.14       73.83       73.53       73.25       72.97       72.71       72.46    
        72.22       72.00       71.79       71.59       71.40       71.23       71.07       70.92       70.79       70.66    
        70.55       70.45       70.36       70.29       70.22       70.16       70.11       70.07       70.03       70.00    
  38  -1000.0       79.40       79.37       79.32       79.25       79.15       79.03       78.88       78.71       78.51    
        78.30       78.05       77.79       77.49       77.18       76.84       76.50       76.16       75.83       75.50    
        75.17       74.85       74.54       74.23       73.93       73.64       73.36       73.09       72.83       72.58    
        72.35       72.12       71.91       71.71       71.53       71.35       71.19       71.03       70.90       70.77    
        70.65       70.54       70.45       70.36       70.29       70.22       70.16       70.10       70.05       70.00    
  39  -1000.0       79.41       79.38       79.33       79.26       79.16       79.04       78.89       78.72       78.53    
        78.31       78.07       77.81       77.52       77.21       76.88       76.54       76.21       75.88       75.56    
        75.24       74.93       74.62       74.32       74.02       73.74       73.46       73.19       72.94       72.69    
        72.46       72.23       72.02       71.82       71.63       71.46       71.29       71.14       70.99       70.86    
        70.74       70.62       70.52       70.43       70.34       70.26       70.19       70.13       70.06       70.00    
  40  -1000.0       79.42       79.39       79.34       79.27       79.17       79.05       78.90       78.73       78.54    
        78.33       78.09       77.83       77.55       77.24       76.91       76.58       76.26       75.93       75.62    
        75.30       74.99       74.69       74.39       74.10       73.82       73.55       73.28       73.03       72.79    
        72.55       72.33       72.12       71.92       71.73       71.55       71.38       71.23       71.08       70.94    
        70.81       70.70       70.59       70.49       70.39       70.31       70.22       70.15       70.07       70.00    
  41  -1000.0       79.43       79.40       79.35       79.27       79.17       79.05       78.91       78.74       78.56    
        78.34       78.11       77.85       77.57       77.27       76.94       76.62       76.30       75.98       75.66    
        75.35       75.05       74.75       74.46       74.17       73.90       73.63       73.36       73.11       72.87    
        72.64       72.42       72.21       72.01       71.82       71.63       71.46       71.30       71.15       71.01    
        70.88       70.76       70.64       70.54       70.44       70.34       70.25       70.17       70.08       70.00    
  42  -1000.0     -1000.0       79.41       79.35       79.28       79.18       79.05       78.91       78.75       78.56    
        78.35       78.12       77.87       77.59       77.29       76.97       76.65       76.33       76.02       75.71    
        75.40       75.10       74.81       74.52       74.24       73.96       73.69       73.44       73.19       72.95    
        72.72       72.49       72.28       72.08       71.89       71.71       71.54       71.37       71.22       71.08    
        70.94       70.81       70.69       70.58       70.47       70.37       70.27       70.18       70.09       70.00    
  43  -1000.0     -1000.0     -1000.0       79.35       79.27       79.17       79.05       78.91       78.75       78.57    
        78.36       78.13       77.88       77.61       77.31       76.99       76.68       76.36       76.05       75.75    
        75.44       75.15       74.85       74.57       74.29       74.02       73.75       73.50       73.25       73.01    
        72.78       72.56       72.35       72.15       71.95       71.77       71.60       71.43       71.28       71.13    
        70.99       70.86       70.73       70.62       70.50       70.40       70.29       70.19       70.10       70.00    
  44  -1000.0     -1000.0     -1000.0     -1000.0       79.27       79.17       79.05       78.91       78.75       78.57    
        78.36       78.14       77.89       77.62       77.33       77.01       76.70       76.39       76.08       75.78    
        75.48       75.18       74.89       74.61       74.33       74.06       73.80       73.55       73.30       73.06    
        72.83       72.61       72.40       72.20       72.01       71.82       71.65       71.48       71.32       71.17    
        71.03       70.90       70.77       70.65       70.53       70.42       70.31       70.21       70.10       70.00    
  45  -1000.0     -1000.0     -1000.0     -1000.0     -1000.0       79.15       79.03       78.89       78.74       78.56    
        78.36       78.14       77.90       77.63       77.34       77.03       76.72       76.41       76.11       75.80    
        75.51       75.22       74.93       74.65       74.37       74.10       73.84       73.59       73.34       73.11    
        72.88       72.66       72.45       72.25       72.05       71.87       71.69       71.52       71.36       71.21    
        71.07       70.93       70.80       70.67       70.55       70.44       70.32       70.21       70.11       70.00    
  46  -1000.0     -1000.0     -1000.0     -1000.0     -1000.0     -1000.0       79.01       78.88       78.72       78.55    
        78.36       78.14       77.90       77.64       77.35       77.04       76.73       76.43       76.12       75.83    
        75.53       75.24       74.95       74.68       74.40       74.14       73.88       73.62       73.38       73.14    
        72.91       72.70       72.48       72.28       72.09       71.90       71.72       71.55       71.39       71.24    
        71.09       70.95       70.82       70.69       70.57       70.45       70.33       70.22       70.11       70.00    
  47  -1000.0     -1000.0     -1000.0     -1000.0     -1000.0     -1000.0     -1000.0       78.85       78.70       78.54    
        78.35       78.14       77.90       77.64       77.36       77.05       76.74       76.44       76.14       75.84    
        75.55       75.26       74.97       74.70       74.42       74.16       73.90       73.65       73.41       73.17    
        72.94       72.72       72.51       72.31       72.11       71.93       71.75       71.58       71.42       71.26    
        71.11       70.97       70.84       70.71       70.58       70.46       70.34       70.23       70.11       70.00    
  48  -1000.0     -1000.0     -1000.0     -1000.0     -1000.0     -1000.0     -1000.0     -1000.0       78.68       78.52    
        78.34       78.13       77.90       77.65       77.36       77.06       76.75       76.45       76.15       75.85    
        75.56       75.27       74.99       74.71       74.44       74.17       73.92       73.67       73.42       73.19    
        72.96       72.74       72.53       72.33       72.13       71.94       71.77       71.59       71.43       71.28    
        71.13       70.98       70.85       70.72       70.59       70.47       70.35       70.23       70.11       70.00    
  49  -1000.0     -1000.0     -1000.0     -1000.0     -1000.0     -1000.0     -1000.0     -1000.0     -1000.0       78.49    
        78.33       78.13       77.90       77.65       77.37       77.06       76.75       76.45       76.15       75.86    
        75.56       75.28       74.99       74.72       74.45       74.18       73.92       73.67       73.43       73.20    
        72.97       72.75       72.54       72.33       72.14       71.95       71.77       71.60       71.44       71.28    
        71.13       70.99       70.85       70.72       70.59       70.47       70.35       70.23       70.12       70.00    
  50  -1000.0     -1000.0     -1000.0     -1000.0     -1000.0     -1000.0     -1000.0     -1000.0     -1000.0     -1000.0    
      -1000.0     -1000.0     -1000.0     -1000.0     -1000.0     -1000.0     -1000.0     -1000.0     -1000.0     -1000.0    
      -1000.0     -1000.0     -1000.0     -1000.0     -1000.0     -1000.0     -1000.0     -1000.0     -1000.0     -1000.0    
      -1000.0     -1000.0     -1000.0     -1000.0     -1000.0     -1000.0     -1000.0     -1000.0     -1000.0     -1000.0    
      -1000.0     -1000.0     -1000.0     -1000.0     -1000.0     -1000.0     -1000.0     -1000.0     -1000.0       70.00    

 HEAD WILL BE SAVED ON UNIT   51 AT END OF TIME STEP    1, STRESS PERIOD    1

 DRAWDOWN WILL BE SAVED ON UNIT   52 AT END OF TIME STEP    1, STRESS PERIOD    1
1
  VOLUMETRIC BUDGET FOR ENTIRE MODEL AT END OF TIME STEP    1, STRESS PERIOD   1
  ------------------------------------------------------------------------------

     CUMULATIVE VOLUMES      L**3       RATES FOR THIS TIME STEP      L**3/T
     ------------------                 ------------------------

           IN:                                      IN:
           ---                                      ---
             STORAGE =           0.0000               STORAGE =           0.0000
       CONSTANT HEAD =        1169.2651         CONSTANT HEAD =        1169.2651
               WELLS =         375.0000                 WELLS =         375.0000
       RIVER LEAKAGE =        6000.0000         RIVER LEAKAGE =        6000.0000
                  ET =           0.0000                    ET =           0.0000
            RECHARGE =        7120.0000              RECHARGE =        7120.0000

            TOTAL IN =       14664.2656              TOTAL IN =       14664.2656

          OUT:                                     OUT:
          ----                                     ----
             STORAGE =           0.0000               STORAGE =           0.0000
       CONSTANT HEAD =         481.4649         CONSTANT HEAD =         481.4649
               WELLS =        6000.0000                 WELLS =        6000.0000
       RIVER LEAKAGE =           0.0000         RIVER LEAKAGE =           0.0000
                  ET =        8182.7905                    ET =        8182.7905
            RECHARGE =           0.0000              RECHARGE =           0.0000

           TOTAL OUT =       14664.2559             TOTAL OUT =       14664.2559

            IN - OUT =       9.7656E-03              IN - OUT =       9.7656E-03

 PERCENT DISCREPANCY =           0.00     PERCENT DISCREPANCY =           0.00






         TIME SUMMARY AT END OF TIME STEP    1 IN STRESS PERIOD    1
                    SECONDS     MINUTES      HOURS       DAYS        YEARS
                    -----------------------------------------------------------
   TIME STEP LENGTH  86400.      1440.0      24.000      1.0000     2.73785E-03
 STRESS PERIOD TIME  86400.      1440.0      24.000      1.0000     2.73785E-03
         TOTAL TIME  86400.      1440.0      24.000      1.0000     2.73785E-03
1

 Run end date and time (yyyy/mm/dd hh:mm:ss): 2026/02/25  3:34:42
 Elapsed run time: 13.569 Seconds

