                                  MODFLOW-2005     
      U.S. GEOLOGICAL SURVEY MODULAR FINITE-DIFFERENCE GROUND-WATER FLOW MODEL
                            VERSION 1.12.00 2/3/2017

 LIST FILE: static_ensemble_S2wel_1111331.list
                         UNIT    2

 OPENING static_ensemble_S2wel_1111331.dis
 FILE TYPE:DIS   UNIT   11   STATUS:OLD    
 FORMAT:FORMATTED              ACCESS:SEQUENTIAL          

 OPENING static_ensemble_S2wel_1111331.bas
 FILE TYPE:BAS6   UNIT   13   STATUS:OLD    
 FORMAT:FORMATTED              ACCESS:SEQUENTIAL          

 OPENING static_ensemble_S2wel_1111331.lpf
 FILE TYPE:LPF   UNIT   15   STATUS:OLD    
 FORMAT:FORMATTED              ACCESS:SEQUENTIAL          

 OPENING static_ensemble_S2wel_1111331.evt
 FILE TYPE:EVT   UNIT   22   STATUS:OLD    
 FORMAT:FORMATTED              ACCESS:SEQUENTIAL          

 OPENING static_ensemble_S2wel_1111331.rch
 FILE TYPE:RCH   UNIT   19   STATUS:OLD    
 FORMAT:FORMATTED              ACCESS:SEQUENTIAL          

 OPENING static_ensemble_S2wel_1111331.riv
 FILE TYPE:RIV   UNIT   18   STATUS:OLD    
 FORMAT:FORMATTED              ACCESS:SEQUENTIAL          

 OPENING static_ensemble_S2wel_1111331.wel
 FILE TYPE:WEL   UNIT   20   STATUS:OLD    
 FORMAT:FORMATTED              ACCESS:SEQUENTIAL          

 OPENING static_ensemble_S2wel_1111331.oc
 FILE TYPE:OC   UNIT   14   STATUS:OLD    
 FORMAT:FORMATTED              ACCESS:SEQUENTIAL          

 OPENING static_ensemble_S2wel_1111331.pcg
 FILE TYPE:PCG   UNIT   27   STATUS:OLD    
 FORMAT:FORMATTED              ACCESS:SEQUENTIAL          

 OPENING static_ensemble_S2wel_1111331.cbc
 FILE TYPE:DATA(BINARY)   UNIT   53   STATUS:REPLACE
 FORMAT:UNFORMATTED            ACCESS:STREAM              

 OPENING static_ensemble_S2wel_1111331.hds
 FILE TYPE:DATA(BINARY)   UNIT   51   STATUS:REPLACE
 FORMAT:UNFORMATTED            ACCESS:STREAM              

 OPENING static_ensemble_S2wel_1111331.ddn
 FILE TYPE:DATA(BINARY)   UNIT   52   STATUS:REPLACE
 FORMAT:UNFORMATTED            ACCESS:STREAM              

 BAS -- BASIC PACKAGE, VERSION 7, 5/2/2005 INPUT READ FROM UNIT   13
 
 MODFLOW was compiled using mixed precision
 Precision of REAL variables:           6
 Precision of DOUBLE PRECISION variables:          15

 DISCRETIZATION INPUT DATA READ FROM UNIT   11
 # DIS package for MODFLOW-2005 generated by Flopy 3.10.0
    3 LAYERS        50 ROWS        50 COLUMNS
    1 STRESS PERIOD(S) IN SIMULATION
 MODEL TIME UNIT IS DAYS
 MODEL LENGTH UNIT IS METERS
  Confining bed flag for each layer:
   0   0   0

                     DELR =   1000.00    

                     DELC =   1000.00    



           TOP ELEVATION OF LAYER 1
 READING ON UNIT   11 WITH FORMAT: (50E15.6)           



             MODEL LAYER BOTTOM EL. FOR LAYER   1
 READING ON UNIT   11 WITH FORMAT: (50E15.6)           



             MODEL LAYER BOTTOM EL. FOR LAYER   2
 READING ON UNIT   11 WITH FORMAT: (50E15.6)           



             MODEL LAYER BOTTOM EL. FOR LAYER   3
 READING ON UNIT   11 WITH FORMAT: (50E15.6)           


 STRESS PERIOD     LENGTH       TIME STEPS     MULTIPLIER FOR DELT    SS FLAG
 ----------------------------------------------------------------------------
        1         1.000000          1                    1.000         SS

 STEADY-STATE SIMULATION



 
 # BAS6 package for MODFLOW-2005 generated by Flopy 3.10.0                       
 THE FREE FORMAT OPTION HAS BEEN SELECTED



                     BOUNDARY ARRAY FOR LAYER   1
 READING ON UNIT   13 WITH FORMAT: (50I10)             



                     BOUNDARY ARRAY FOR LAYER   2
 READING ON UNIT   13 WITH FORMAT: (50I10)             



                     BOUNDARY ARRAY FOR LAYER   3
 READING ON UNIT   13 WITH FORMAT: (50I10)             

 AQUIFER HEAD WILL BE SET TO  -999.99     AT ALL NO-FLOW NODES (IBOUND=0).



                       INITIAL HEAD FOR LAYER   1
 READING ON UNIT   13 WITH FORMAT: (50E15.6)           



                       INITIAL HEAD FOR LAYER   2
 READING ON UNIT   13 WITH FORMAT: (50E15.6)           



                       INITIAL HEAD FOR LAYER   3
 READING ON UNIT   13 WITH FORMAT: (50E15.6)           
 # OC package for MODFLOW-2005 generated by Flopy 3.10.0

 OUTPUT CONTROL IS SPECIFIED ONLY AT TIME STEPS FOR WHICH OUTPUT IS DESIRED
 COMPACT CELL-BY-CELL BUDGET FILES WILL BE WRITTEN
 AUXILIARY DATA WILL BE SAVED IN CELL-BY-CELL BUDGET FILES
 HEAD PRINT FORMAT CODE IS   0    DRAWDOWN PRINT FORMAT CODE IS   0
 HEADS WILL BE SAVED ON UNIT   51    DRAWDOWNS WILL BE SAVED ON UNIT   52

 LPF -- LAYER-PROPERTY FLOW PACKAGE, VERSION 7, 5/2/2005
         INPUT READ FROM UNIT   15
 # LPF package for MODFLOW-2005 generated by Flopy 3.10.0
 CELL-BY-CELL FLOWS WILL BE SAVED ON UNIT   53
 HEAD AT CELLS THAT CONVERT TO DRY= -1.00000E+30
 No named parameters
 STORAGECOEFFICIENT OPTION:
 Read storage coefficient rather than specific storage

   LAYER FLAGS:
 LAYER       LAYTYP        LAYAVG         CHANI        LAYVKA        LAYWET
 ---------------------------------------------------------------------------
    1             1             0     1.000E+00             0             0
    2             1             0     1.000E+00             0             0
    3             1             0     1.000E+00             0             0

   INTERPRETATION OF LAYER FLAGS:
                        INTERBLOCK     HORIZONTAL    DATA IN
         LAYER TYPE   TRANSMISSIVITY   ANISOTROPY   ARRAY VKA   WETTABILITY
 LAYER      (LAYTYP)      (LAYAVG)       (CHANI)      (LAYVKA)      (LAYWET)
 ---------------------------------------------------------------------------
    1   CONVERTIBLE      HARMONIC     1.000E+00    VERTICAL K  NON-WETTABLE
    2   CONVERTIBLE      HARMONIC     1.000E+00    VERTICAL K  NON-WETTABLE
    3   CONVERTIBLE      HARMONIC     1.000E+00    VERTICAL K  NON-WETTABLE

 WETTING CAPABILITY IS NOT ACTIVE IN ANY LAYER



              HYD. COND. ALONG ROWS FOR LAYER   1
 READING ON UNIT   15 WITH FORMAT: (50E15.6)           



                VERTICAL HYD. COND. FOR LAYER   1
 READING ON UNIT   15 WITH FORMAT: (50E15.6)           



              HYD. COND. ALONG ROWS FOR LAYER   2
 READING ON UNIT   15 WITH FORMAT: (50E15.6)           



                VERTICAL HYD. COND. FOR LAYER   2
 READING ON UNIT   15 WITH FORMAT: (50E15.6)           



              HYD. COND. ALONG ROWS FOR LAYER   3
 READING ON UNIT   15 WITH FORMAT: (50E15.6)           



                VERTICAL HYD. COND. FOR LAYER   3
 READING ON UNIT   15 WITH FORMAT: (50E15.6)           

 WEL -- WELL PACKAGE, VERSION 7, 5/2/2005 INPUT READ FROM UNIT   20
 # WEL package for MODFLOW-2005 generated by Flopy 3.10.0
 No named parameters
 MAXIMUM OF      4 ACTIVE WELLS AT ONE TIME


     0 Well parameters

 RIV -- RIVER PACKAGE, VERSION 7, 5/2/2005 INPUT READ FROM UNIT   18
 # RIV package for MODFLOW-2005 generated by Flopy 3.10.0
 No named parameters
 MAXIMUM OF     49 ACTIVE RIVER REACHES AT ONE TIME
 CELL-BY-CELL FLOWS WILL BE SAVED ON UNIT   53


     0 River parameters

 EVT -- EVAPOTRANSPIRATION PACKAGE, VERSION 7, 5/2/2005
         INPUT READ FROM UNIT   22
 # EVT package for MODFLOW-2005 generated by Flopy 3.10.0
 No named parameters
 OPTION 3 -- EVAPOTRANSPIRATION FROM HIGHEST ACTIVE NODE IN EACH VERTICAL COLUMN
 CELL-BY-CELL FLOWS WILL BE SAVED ON UNIT   53


     0 Evapotranspiration parameters

 RCH -- RECHARGE PACKAGE, VERSION 7, 5/2/2005 INPUT READ FROM UNIT   19
 # RCH package for MODFLOW-2005 generated by Flopy 3.10.0
 No named parameters
 OPTION 3 -- RECHARGE TO HIGHEST ACTIVE NODE IN EACH VERTICAL COLUMN
 CELL-BY-CELL FLOWS WILL BE SAVED ON UNIT   53


     0 Recharge parameters

 PCG -- CONJUGATE-GRADIENT SOLUTION PACKAGE, VERSION 7, 5/2/2005
 # PCG package for MODFLOW-2005 generated by Flopy 3.10.0
 MAXIMUM OF   5000 CALLS OF SOLUTION ROUTINE
 MAXIMUM OF    500 INTERNAL ITERATIONS PER CALL TO SOLUTION ROUTINE
 MATRIX PRECONDITIONING TYPE :    1



                                    SOLUTION BY THE CONJUGATE-GRADIENT METHOD
                                   -------------------------------------------
                    MAXIMUM NUMBER OF CALLS TO PCG ROUTINE =     5000
                        MAXIMUM ITERATIONS PER CALL TO PCG =      500
                               MATRIX PRECONDITIONING TYPE =        1
        RELAXATION FACTOR (ONLY USED WITH PRECOND. TYPE 1) =    0.97000E+00
 PARAMETER OF POLYNOMIAL PRECOND. = 2 (2) OR IS CALCULATED :        0
                         HEAD CHANGE CRITERION FOR CLOSURE =    0.10000E-04
                     RESIDUAL CHANGE CRITERION FOR CLOSURE =    0.10000E-04
            PCG HEAD AND RESIDUAL CHANGE PRINTOUT INTERVAL =      999
     PRINTING FROM SOLVER IS LIMITED(1) OR SUPPRESSED (>1) =        3
                            STEADY-STATE DAMPING PARAMETER =    0.10000E-01
                               TRANSIENT DAMPING PARAMETER =    0.10000E-01
1
                            STRESS PERIOD NO.    1, LENGTH =   1.000000    
                            -----------------------------------------------

                              NUMBER OF TIME STEPS =     1

                               MULTIPLIER FOR DELT =     1.000

                            INITIAL TIME STEP SIZE =   1.000000    

 WELL NO.  LAYER   ROW   COL   STRESS RATE         
 --------------------------------------------------
      1      3     22     39      -1500.    
      2      1     13     15      -4500.    
      3      1     25     26       375.0    
      4      3     30     39      -1500.    

      4 WELLS

 REACH NO.  LAYER   ROW   COL     STAGE      CONDUCTANCE     BOTTOM EL.         
 -------------------------------------------------------------------------------
      1      1     25      2       100.5           50.00           98.00    
      2      1     25      3       99.50           50.00           97.00    
      3      1     25      4       98.50           50.00           96.00    
      4      1     25      5       97.50           50.00           95.00    
      5      1     25      6       96.50           50.00           94.00    
      6      1     25      7       95.50           50.00           93.00    
      7      1     25      8       94.50           50.00           92.00    
      8      1     25      9       93.50           50.00           91.00    
      9      1     25     10       92.50           50.00           90.00    
     10      1     25     11       91.50           50.00           89.00    
     11      1     25     12       90.50           50.00           88.00    
     12      1     25     13       89.50           50.00           87.00    
     13      1     25     14       88.50           50.00           86.00    
     14      1     25     15       87.50           50.00           85.00    
     15      1     25     16       86.50           50.00           84.00    
     16      1     25     17       85.50           50.00           83.00    
     17      1     25     18       84.50           50.00           82.00    
     18      1     25     19       83.50           50.00           81.00    
     19      1     25     20       82.50           50.00           80.00    
     20      1     25     21       81.50           50.00           79.00    
     21      1     25     22       80.50           50.00           78.00    
     22      1     25     23       79.50           50.00           77.00    
     23      1     25     24       78.50           50.00           76.00    
     24      1     25     25       77.50           50.00           75.00    
     25      1     25     26       77.40           50.00           74.90    
     26      1     25     27       77.30           50.00           74.80    
     27      1     25     28       77.20           50.00           74.70    
     28      1     25     29       77.10           50.00           74.60    
     29      1     25     30       77.00           50.00           74.50    
     30      1     25     31       76.90           50.00           74.40    
     31      1     25     32       76.80           50.00           74.30    
     32      1     25     33       76.70           50.00           74.20    
     33      1     25     34       76.60           50.00           74.10    
     34      1     25     35       76.50           50.00           74.00    
     35      1     25     36       76.40           50.00           73.90    
     36      1     25     37       76.30           50.00           73.80    
     37      1     25     38       76.20           50.00           73.70    
     38      1     25     39       76.10           50.00           73.60    
     39      1     25     40       76.00           50.00           73.50    
     40      1     25     41       75.90           50.00           73.40    
     41      1     25     42       75.80           50.00           73.30    
     42      1     25     43       75.70           50.00           73.20    
     43      1     25     44       75.60           50.00           73.10    
     44      1     25     45       75.50           50.00           73.00    
     45      1     25     46       75.40           50.00           72.90    
     46      1     25     47       75.30           50.00           72.80    
     47      1     25     48       75.20           50.00           72.70    
     48      1     25     49       75.10           50.00           72.60    
     49      1     25     50       75.00           50.00           72.50    

     49 RIVER REACHES



                         ET SURFACE
 READING ON UNIT   22 WITH FORMAT: (50E15.6)           



            EVAPOTRANSPIRATION RATE
 READING ON UNIT   22 WITH FORMAT: (50E15.6)           

         EXTINCTION DEPTH =   10.0000    



                           RECHARGE
 READING ON UNIT   19 WITH FORMAT: (50E15.6)           
 
 SOLVING FOR HEAD 

 OUTPUT CONTROL FOR STRESS PERIOD    1   TIME STEP    1
    SAVE HEAD FOR ALL LAYERS
    SAVE DRAWDOWN FOR ALL LAYERS
    SAVE BUDGET
    PRINT HEAD FOR ALL LAYERS
    PRINT BUDGET
 UBDSV2 SAVING "   CONSTANT HEAD" ON UNIT  53 AT TIME STEP  1, STRESS PERIOD   1
 UBDSV1 SAVING "FLOW RIGHT FACE " ON UNIT  53 AT TIME STEP  1, STRESS PERIOD   1
 UBDSV1 SAVING "FLOW FRONT FACE " ON UNIT  53 AT TIME STEP  1, STRESS PERIOD   1
 UBDSV1 SAVING "FLOW LOWER FACE " ON UNIT  53 AT TIME STEP  1, STRESS PERIOD   1
 UBDSV4 SAVING "   RIVER LEAKAGE" ON UNIT  53 AT TIME STEP  1, STRESS PERIOD   1
 UBDSV3 SAVING "              ET" ON UNIT  53 AT TIME STEP  1, STRESS PERIOD   1
 UBDSV3 SAVING "        RECHARGE" ON UNIT  53 AT TIME STEP  1, STRESS PERIOD   1
1
              HEAD IN LAYER   1 AT END OF TIME STEP   1 IN STRESS PERIOD    1
  ---------------------------------------------------------------------------

            1           2           3           4           5           6           7           8           9          10
           11          12          13          14          15          16          17          18          19          20
           21          22          23          24          25          26          27          28          29          30
           31          32          33          34          35          36          37          38          39          40
           41          42          43          44          45          46          47          48          49          50
 ........................................................................................................................
   1  -1000.0     -1000.0     -1000.0     -1000.0     -1000.0     -1000.0     -1000.0     -1000.0     -1000.0     -1000.0    
      -1000.0     -1000.0     -1000.0     -1000.0     -1000.0     -1000.0     -1000.0     -1000.0     -1000.0     -1000.0    
      -1000.0     -1000.0     -1000.0     -1000.0     -1000.0     -1000.0     -1000.0     -1000.0     -1000.0     -1000.0    
      -1000.0     -1000.0     -1000.0     -1000.0     -1000.0     -1000.0     -1000.0     -1000.0     -1000.0     -1000.0    
      -1000.0     -1000.0     -1000.0     -1000.0     -1000.0     -1000.0     -1000.0     -1000.0     -1000.0       70.00    
   2  -1000.0     -1000.0     -1000.0     -1000.0     -1000.0       74.09       73.96       73.76       73.54       73.29    
        73.12       72.92       72.70       72.47       72.23       71.99       71.78       71.59       71.42       71.27    
        71.13       71.01       70.90       70.80       70.70       70.62       70.53       70.46       70.38       70.31    
        70.25       70.19       70.13       70.08       70.04       70.00       69.96       69.94       69.92       69.90    
        69.89       69.89       69.89       69.89       69.90       69.92       69.94       69.96       69.98       70.00    
   3  -1000.0     -1000.0     -1000.0     -1000.0       74.28       74.14       73.97       73.76       73.51       73.32    
        73.12       72.91       72.68       72.45       72.21       71.97       71.75       71.56       71.40       71.25    
        71.12       71.00       70.89       70.79       70.70       70.61       70.53       70.45       70.38       70.31    
        70.24       70.18       70.13       70.08       70.03       69.99       69.96       69.93       69.91       69.89    
        69.89       69.88       69.88       69.89       69.90       69.92       69.93       69.95       69.98       70.00    
   4  -1000.0     -1000.0     -1000.0       74.48       74.35       74.17       73.97       73.73       73.54       73.33    
        73.11       72.88       72.64       72.40       72.16       71.91       71.70       71.52       71.36       71.22    
        71.09       70.98       70.87       70.78       70.69       70.60       70.52       70.44       70.37       70.30    
        70.23       70.17       70.12       70.07       70.02       69.98       69.95       69.92       69.90       69.88    
        69.87       69.87       69.87       69.88       69.89       69.91       69.93       69.95       69.98       70.00    
   5  -1000.0     -1000.0       74.66       74.54       74.38       74.19       73.96       73.77       73.56       73.33    
        73.09       72.84       72.58       72.33       72.07       71.83       71.62       71.45       71.30       71.17    
        71.05       70.94       70.85       70.75       70.67       70.58       70.50       70.43       70.35       70.28    
        70.22       70.16       70.10       70.05       70.00       69.96       69.93       69.90       69.88       69.87    
        69.86       69.86       69.86       69.87       69.88       69.90       69.92       69.95       69.97       70.00    
   6  -1000.0       74.81       74.72       74.58       74.41       74.19       74.00       73.79       73.56       73.31    
        73.05       72.77       72.49       72.22       71.96       71.71       71.51       71.35       71.21       71.10    
        71.00       70.90       70.81       70.73       70.65       70.56       70.49       70.41       70.34       70.27    
        70.20       70.14       70.08       70.03       69.98       69.94       69.90       69.88       69.86       69.84    
        69.83       69.83       69.84       69.85       69.87       69.89       69.91       69.94       69.97       70.00    
   7  -1000.0       74.83       74.75       74.61       74.42       74.25       74.05       73.82       73.56       73.28    
        72.99       72.67       72.36       72.06       71.79       71.55       71.37       71.23       71.11       71.02    
        70.94       70.85       70.78       70.70       70.62       70.54       70.47       70.39       70.32       70.24    
        70.18       70.11       70.05       70.00       69.95       69.91       69.87       69.85       69.82       69.81    
        69.80       69.81       69.81       69.83       69.85       69.87       69.90       69.93       69.97       70.00    
   8  -1000.0       74.86       74.78       74.64       74.49       74.31       74.09       73.84       73.56       73.25    
        72.91       72.55       72.19       71.86       71.57       71.33       71.18       71.07       70.99       70.93    
        70.87       70.81       70.74       70.67       70.60       70.52       70.44       70.37       70.29       70.22    
        70.15       70.08       70.02       69.96       69.91       69.87       69.83       69.81       69.79       69.77    
        69.77       69.77       69.78       69.80       69.82       69.85       69.88       69.92       69.96       70.00    
   9  -1000.0       74.91       74.83       74.71       74.56       74.37       74.14       73.87       73.56       73.21    
        72.82       72.40       71.98       71.58       71.25       71.04       70.93       70.88       70.86       70.84    
        70.80       70.76       70.70       70.64       70.57       70.50       70.42       70.34       70.27       70.19    
        70.12       70.05       69.98       69.92       69.87       69.83       69.79       69.76       69.74       69.73    
        69.72       69.73       69.74       69.76       69.79       69.82       69.86       69.91       69.95       70.00    
  10  -1000.0       74.98       74.91       74.79       74.64       74.44       74.20       73.91       73.57       73.17    
        72.72       72.23       71.70       71.19       70.80       70.64       70.63       70.67       70.72       70.75    
        70.74       70.72       70.68       70.62       70.56       70.48       70.40       70.32       70.24       70.16    
        70.08       70.01       69.94       69.88       69.82       69.77       69.74       69.71       69.68       69.67    
        69.67       69.68       69.70       69.72       69.75       69.79       69.84       69.89       69.94       70.00    
  11  -1000.0       75.05       75.00       74.89       74.73       74.53       74.28       73.97       73.60       73.17    
        72.65       72.05       71.37       70.65       70.08       70.08       70.27       70.46       70.60       70.68    
        70.71       70.70       70.67       70.61       70.54       70.47       70.38       70.29       70.21       70.12    
        70.04       69.96       69.89       69.82       69.76       69.71       69.67       69.64       69.62       69.61    
        69.61       69.62       69.64       69.67       69.71       69.76       69.81       69.87       69.93       70.00    
  12  -1000.0       75.16       75.11       75.00       74.85       74.64       74.38       74.06       73.68       73.21    
        72.63       71.93       71.03       69.92       68.75       69.33       69.91       70.29       70.53       70.66    
        70.71       70.71       70.68       70.62       70.54       70.46       70.36       70.27       70.17       70.08    
        69.99       69.91       69.83       69.76       69.70       69.64       69.60       69.57       69.55       69.54    
        69.54       69.55       69.58       69.61       69.66       69.71       69.78       69.85       69.92       70.00    
  13  -1000.0       75.29       75.24       75.14       74.99       74.78       74.52       74.20       73.80       73.32    
        72.72       71.95       70.89       69.18       65.52       68.57       69.73       70.28       70.56       70.71    
        70.76       70.75       70.71       70.64       70.55       70.45       70.35       70.24       70.14       70.03    
        69.94       69.84       69.76       69.69       69.62       69.56       69.52       69.48       69.46       69.45    
        69.45       69.47       69.50       69.54       69.60       69.66       69.74       69.82       69.91       70.00    
  14  -1000.0       75.45       75.40       75.30       75.15       74.95       74.69       74.37       73.98       73.51    
        72.94       72.22       71.33       70.20       69.03       69.59       70.15       70.52       70.74       70.85    
        70.86       70.83       70.76       70.67       70.57       70.45       70.33       70.21       70.09       69.98    
        69.87       69.78       69.68       69.60       69.53       69.47       69.42       69.39       69.36       69.35    
        69.36       69.38       69.41       69.46       69.52       69.60       69.69       69.79       69.89       70.00    
  15  -1000.0       75.63       75.59       75.49       75.34       75.15       74.90       74.59       74.22       73.78    
        73.26       72.65       71.95       71.22       70.63       70.60       70.76       70.91       71.01       71.05    
        71.02       70.94       70.84       70.72       70.59       70.45       70.31       70.18       70.05       69.92    
        69.81       69.70       69.60       69.51       69.43       69.37       69.32       69.28       69.25       69.24    
        69.25       69.27       69.31       69.36       69.44       69.52       69.63       69.74       69.87       70.00    
  16  -1000.0       75.84       75.79       75.70       75.56       75.37       75.13       74.84       74.49       74.09    
        73.63       73.12       72.57       72.04       71.62       71.42       71.37       71.36       71.35       71.31    
        71.21       71.09       70.94       70.78       70.62       70.45       70.29       70.14       69.99       69.85    
        69.72       69.61       69.50       69.41       69.32       69.25       69.20       69.15       69.13       69.11    
        69.12       69.14       69.19       69.25       69.33       69.43       69.55       69.69       69.84       70.00    
  17  -1000.0       76.06       76.01       75.93       75.79       75.61       75.39       75.12       74.80       74.43    
        74.03       73.59       73.13       72.70       72.34       72.08       71.92       71.81       71.71       71.60    
        71.43       71.24       71.04       70.84       70.64       70.45       70.26       70.09       69.92       69.77    
        69.63       69.50       69.39       69.29       69.20       69.12       69.06       69.01       68.98       68.97    
        68.98       69.00       69.05       69.11       69.21       69.32       69.46       69.63       69.81       70.00    
  18  -1000.0       76.30       76.25       76.17       76.04       75.88       75.67       75.41       75.12       74.79    
        74.42       74.04       73.64       73.27       72.93       72.64       72.42       72.24       72.08       71.90    
        71.66       71.41       71.15       70.90       70.66       70.43       70.22       70.02       69.84       69.67    
        69.52       69.39       69.26       69.15       69.06       68.98       68.91       68.86       68.82       68.81    
        68.81       68.83       68.88       68.95       69.05       69.18       69.35       69.54       69.76       70.00    
  19  -1000.0       76.55       76.51       76.43       76.31       76.15       75.95       75.72       75.45       75.14    
        74.81       74.46       74.11       73.76       73.43       73.13       72.88       72.66       72.45       72.22    
        71.90       71.57       71.25       70.94       70.65       70.39       70.15       69.93       69.73       69.56    
        69.39       69.25       69.12       69.00       68.90       68.82       68.74       68.69       68.65       68.62    
        68.62       68.64       68.69       68.76       68.87       69.01       69.19       69.42       69.70       70.00    
  20  -1000.0       76.82       76.78       76.70       76.59       76.44       76.25       76.03       75.78       75.50    
        75.19       74.87       74.53       74.20       73.87       73.56       73.29       73.06       72.85       72.57    
        72.15       71.72       71.32       70.95       70.62       70.32       70.05       69.82       69.60       69.41    
        69.25       69.09       68.96       68.84       68.73       68.64       68.56       68.50       68.45       68.42    
        68.41       68.43       68.47       68.54       68.64       68.79       68.99       69.26       69.60       70.00    
  21  -1000.0       77.09       77.06       76.99       76.88       76.74       76.56       76.35       76.11       75.85    
        75.56       75.25       74.93       74.60       74.27       73.95       73.67       73.44       73.31       72.99    
        72.37       71.84       71.36       70.93       70.54       70.21       69.92       69.67       69.44       69.24    
        69.07       68.92       68.78       68.65       68.54       68.44       68.36       68.29       68.23       68.20    
        68.18       68.18       68.21       68.27       68.36       68.50       68.71       69.01       69.43       70.00    
  22  -1000.0       77.38       77.35       77.28       77.18       77.04       76.87       76.67       76.45       76.19    
        75.91       75.61       75.30       74.97       74.63       74.29       73.98       73.72       73.55       73.19    
        72.50       71.90       71.34       70.84       70.38       70.04       69.74       69.47       69.24       69.04    
        68.87       68.71       68.57       68.45       68.34       68.23       68.14       68.07       68.00       67.95    
        67.92       67.90       67.91       67.95       68.02       68.14       68.33       68.64       69.16       70.00    
  23  -1000.0       77.67       77.64       77.58       77.48       77.35       77.19       77.00       76.78       76.53    
        76.26       75.96       75.65       75.31       74.97       74.60       74.25       73.91       73.58       73.17    
        72.53       71.89       71.26       70.68       70.19       69.85       69.52       69.23       69.00       68.80    
        68.63       68.48       68.35       68.23       68.11       68.01       67.91       67.83       67.75       67.68    
        67.63       67.60       67.58       67.59       67.64       67.74       67.94       68.29       68.92       70.00    
  24  -1000.0       77.97       77.94       77.88       77.78       77.66       77.50       77.32       77.10       76.86    
        76.60       76.31       75.99       75.65       75.28       74.89       74.50       74.10       73.68       73.22    
        72.54       71.84       71.16       70.56       70.10       69.86       69.41       69.05       68.79       68.58    
        68.41       68.27       68.14       68.01       67.90       67.79       67.70       67.60       67.52       67.45    
        67.38       67.33       67.30       67.30       67.34       67.44       67.65       68.05       68.76       70.00    
  25  -1000.0       78.28       78.25       78.19       78.09       77.97       77.82       77.64       77.43       77.20    
        76.93       76.64       76.33       75.98       75.60       75.19       74.76       74.30       73.82       73.32    
        72.67       71.94       71.24       70.64       70.28       70.54       69.57       69.10       68.80       68.59    
        68.42       68.27       68.14       68.02       67.91       67.80       67.70       67.60       67.52       67.44    
        67.37       67.32       67.28       67.27       67.31       67.42       67.64       68.07       68.82       70.00    
  26  -1000.0       78.27       78.24       78.18       78.09       77.97       77.82       77.65       77.44       77.21    
        76.94       76.65       76.33       75.98       75.59       75.16       74.70       74.21       73.70       73.19    
        72.30       71.49       70.74       70.08       69.59       69.33       68.85       68.48       68.21       68.00    
        67.83       67.68       67.54       67.42       67.30       67.19       67.08       66.98       66.89       66.81    
        66.74       66.69       66.65       66.64       66.68       66.80       67.05       67.53       68.41       70.00    
  27  -1000.0       78.26       78.23       78.17       78.09       77.97       77.82       77.65       77.45       77.22    
        76.96       76.67       76.35       75.99       75.60       75.17       74.71       74.23       73.73       73.22    
        72.32       71.51       70.75       70.07       69.50       69.12       68.75       68.44       68.20       67.99    
        67.82       67.67       67.53       67.40       67.27       67.16       67.05       66.95       66.86       66.78    
        66.71       66.66       66.63       66.63       66.68       66.80       67.06       67.55       68.43       70.00    
  28  -1000.0       78.26       78.23       78.17       78.09       77.97       77.83       77.66       77.46       77.23    
        76.97       76.68       76.37       76.01       75.63       75.20       74.76       74.30       73.82       73.33    
        72.53       71.77       71.05       70.39       69.82       69.39       69.05       68.76       68.52       68.31    
        68.13       67.97       67.82       67.69       67.56       67.44       67.33       67.24       67.15       67.07    
        67.01       66.97       66.95       66.96       67.02       67.16       67.42       67.87       68.66       70.00    
  29  -1000.0       78.26       78.23       78.18       78.09       77.98       77.84       77.67       77.47       77.25    
        76.99       76.71       76.39       76.04       75.66       75.24       74.81       74.37       73.92       73.47    
        72.78       72.12       71.49       70.90       70.38       69.92       69.56       69.26       69.01       68.78    
        68.59       68.41       68.25       68.10       67.97       67.84       67.73       67.63       67.55       67.49    
        67.44       67.41       67.41       67.45       67.54       67.70       67.96       68.39       69.05       70.00    
  30  -1000.0       78.26       78.24       78.18       78.10       77.99       77.85       77.68       77.49       77.26    
        77.01       76.73       76.42       76.08       75.70       75.29       74.88       74.45       74.03       73.60    
        73.00       72.41       71.85       71.32       70.84       70.40       70.04       69.73       69.46       69.22    
        69.01       68.82       68.64       68.49       68.34       68.21       68.10       68.00       67.92       67.87    
        67.83       67.82       67.84       67.90       68.00       68.17       68.42       68.78       69.30       70.00    
  31  -1000.0       78.27       78.24       78.19       78.10       78.00       77.86       77.69       77.50       77.28    
        77.03       76.76       76.45       76.11       75.75       75.35       74.94       74.54       74.13       73.72    
        73.18       72.66       72.15       71.67       71.22       70.82       70.46       70.15       69.87       69.62    
        69.39       69.19       69.00       68.84       68.69       68.56       68.44       68.34       68.27       68.21    
        68.18       68.18       68.21       68.28       68.39       68.55       68.78       69.09       69.49       70.00    
  32  -1000.0       78.28       78.25       78.20       78.11       78.01       77.87       77.71       77.52       77.30    
        77.06       76.79       76.49       76.16       75.80       75.41       75.01       74.62       74.23       73.83    
        73.35       72.87       72.40       71.96       71.54       71.16       70.82       70.50       70.22       69.96    
        69.73       69.52       69.33       69.16       69.01       68.87       68.76       68.66       68.58       68.53    
        68.50       68.50       68.53       68.60       68.70       68.85       69.06       69.32       69.64       70.00    
  33  -1000.0       78.28       78.26       78.21       78.13       78.02       77.89       77.73       77.54       77.33    
        77.09       76.82       76.52       76.20       75.85       75.47       75.08       74.70       74.32       73.94    
        73.49       73.05       72.62       72.21       71.82       71.46       71.12       70.81       70.53       70.27    
        70.04       69.83       69.63       69.46       69.30       69.16       69.04       68.95       68.87       68.81    
        68.79       68.78       68.81       68.87       68.96       69.09       69.27       69.48       69.73       70.00    
  34  -1000.0       78.29       78.27       78.22       78.14       78.03       77.90       77.74       77.56       77.35    
        77.11       76.85       76.56       76.24       75.90       75.53       75.15       74.78       74.41       74.05    
        73.63       73.22       72.81       72.43       72.06       71.71       71.39       71.09       70.81       70.55    
        70.32       70.10       69.90       69.73       69.57       69.43       69.31       69.21       69.13       69.07    
        69.04       69.03       69.05       69.10       69.18       69.29       69.43       69.60       69.79       70.00    
  35  -1000.0       78.31       78.28       78.23       78.15       78.05       77.92       77.76       77.58       77.37    
        77.14       76.88       76.60       76.29       75.95       75.58       75.22       74.86       74.50       74.14    
        73.75       73.36       72.98       72.62       72.27       71.93       71.62       71.32       71.05       70.80    
        70.56       70.35       70.15       69.97       69.81       69.67       69.55       69.45       69.36       69.30    
        69.27       69.25       69.26       69.30       69.36       69.45       69.56       69.69       69.84       70.00    
  36  -1000.0       78.32       78.29       78.24       78.16       78.06       77.93       77.78       77.60       77.40    
        77.17       76.91       76.63       76.33       76.00       75.64       75.28       74.93       74.58       74.23    
        73.86       73.49       73.13       72.78       72.45       72.13       71.82       71.54       71.27       71.02    
        70.78       70.57       70.37       70.19       70.03       69.89       69.77       69.66       69.58       69.51    
        69.47       69.45       69.45       69.47       69.51       69.58       69.66       69.77       69.88       70.00    
  37  -1000.0       78.33       78.30       78.25       78.17       78.07       77.95       77.80       77.62       77.42    
        77.19       76.94       76.67       76.37       76.04       75.69       75.34       75.00       74.65       74.31    
        73.96       73.61       73.26       72.93       72.61       72.30       72.00       71.72       71.46       71.21    
        70.98       70.77       70.57       70.39       70.23       70.09       69.96       69.85       69.76       69.69    
        69.64       69.61       69.60       69.61       69.64       69.69       69.75       69.83       69.91       70.00    
  38  -1000.0       78.34       78.31       78.26       78.19       78.09       77.96       77.81       77.64       77.44    
        77.22       76.97       76.70       76.40       76.08       75.74       75.40       75.06       74.72       74.39    
        74.05       73.71       73.38       73.06       72.75       72.45       72.16       71.89       71.63       71.39    
        71.16       70.95       70.75       70.57       70.41       70.26       70.14       70.03       69.93       69.86    
        69.80       69.76       69.74       69.74       69.75       69.78       69.82       69.88       69.94       70.00    
  39  -1000.0       78.35       78.32       78.27       78.20       78.10       77.97       77.83       77.65       77.46    
        77.24       77.00       76.73       76.44       76.12       75.78       75.45       75.11       74.78       74.46    
        74.13       73.80       73.48       73.17       72.87       72.58       72.30       72.03       71.78       71.54    
        71.31       71.10       70.91       70.73       70.57       70.42       70.29       70.18       70.08       70.00    
        69.94       69.89       69.86       69.85       69.85       69.86       69.88       69.92       69.96       70.00    
  40  -1000.0       78.36       78.33       78.28       78.21       78.11       77.98       77.84       77.67       77.47    
        77.26       77.02       76.76       76.47       76.16       75.83       75.49       75.17       74.84       74.52    
        74.20       73.89       73.57       73.27       72.98       72.69       72.42       72.16       71.91       71.67    
        71.45       71.24       71.05       70.87       70.71       70.56       70.43       70.31       70.21       70.13    
        70.06       70.01       69.97       69.94       69.93       69.93       69.94       69.95       69.98       70.00    
  41  -1000.0       78.37       78.34       78.29       78.21       78.11       77.99       77.84       77.68       77.49    
        77.27       77.04       76.78       76.50       76.19       75.86       75.54       75.21       74.89       74.58    
        74.27       73.96       73.66       73.36       73.07       72.79       72.53       72.27       72.03       71.79    
        71.57       71.37       71.18       71.00       70.83       70.69       70.55       70.43       70.33       70.24    
        70.16       70.10       70.06       70.02       70.00       69.99       69.98       69.98       69.99       70.00    
  42  -1000.0       78.40       78.35       78.30       78.22       78.12       77.99       77.85       77.68       77.50    
        77.29       77.06       76.80       76.52       76.22       75.89       75.57       75.25       74.94       74.63    
        74.32       74.02       73.73       73.44       73.15       72.88       72.62       72.37       72.13       71.90    
        71.68       71.47       71.28       71.11       70.94       70.79       70.66       70.53       70.43       70.33    
        70.25       70.19       70.13       70.09       70.06       70.03       70.02       70.01       70.00       70.00    
  43  -1000.0       78.43       78.39       78.30       78.22       78.11       77.99       77.85       77.69       77.50    
        77.30       77.07       76.82       76.54       76.24       75.92       75.60       75.29       74.98       74.67    
        74.37       74.08       73.79       73.50       73.23       72.96       72.70       72.45       72.21       71.98    
        71.77       71.57       71.38       71.20       71.03       70.88       70.75       70.62       70.51       70.42    
        70.33       70.26       70.20       70.15       70.11       70.08       70.05       70.03       70.01       70.00    
  44  -1000.0       78.46       78.41       78.33       78.21       78.11       77.99       77.85       77.69       77.50    
        77.30       77.08       76.83       76.56       76.26       75.94       75.63       75.32       75.01       74.71    
        74.41       74.12       73.84       73.56       73.28       73.02       72.76       72.52       72.28       72.06    
        71.84       71.64       71.45       71.28       71.11       70.96       70.82       70.70       70.58       70.48    
        70.40       70.32       70.25       70.20       70.15       70.11       70.08       70.05       70.02       70.00    
  45  -1000.0       78.47       78.43       78.35       78.24       78.09       77.97       77.84       77.68       77.50    
        77.30       77.08       76.84       76.57       76.28       75.96       75.65       75.34       75.04       74.74    
        74.45       74.16       73.88       73.60       73.33       73.07       72.82       72.58       72.34       72.12    
        71.91       71.71       71.52       71.34       71.18       71.02       70.88       70.76       70.64       70.54    
        70.45       70.37       70.30       70.24       70.18       70.14       70.10       70.06       70.03       70.00    
  46  -1000.0     -1000.0       78.42       78.35       78.24       78.12       77.95       77.82       77.67       77.49    
        77.30       77.08       76.84       76.58       76.29       75.98       75.67       75.36       75.06       74.76    
        74.48       74.19       73.91       73.64       73.37       73.11       72.86       72.62       72.39       72.17    
        71.96       71.76       71.57       71.39       71.23       71.07       70.93       70.80       70.69       70.58    
        70.49       70.40       70.33       70.27       70.21       70.16       70.11       70.07       70.04       70.00    
  47  -1000.0     -1000.0     -1000.0       78.32       78.24       78.12       77.98       77.79       77.65       77.48    
        77.29       77.08       76.84       76.58       76.30       75.99       75.68       75.38       75.08       74.78    
        74.50       74.21       73.94       73.66       73.40       73.14       72.89       72.65       72.42       72.20    
        71.99       71.79       71.60       71.43       71.26       71.11       70.97       70.84       70.72       70.62    
        70.52       70.43       70.36       70.29       70.23       70.17       70.13       70.08       70.04       70.00    
  48  -1000.0     -1000.0     -1000.0     -1000.0       78.20       78.11       77.98       77.82       77.62       77.46    
        77.28       77.07       76.84       76.59       76.30       75.99       75.69       75.39       75.09       74.79    
        74.51       74.23       73.95       73.68       73.42       73.16       72.92       72.68       72.45       72.23    
        72.02       71.82       71.63       71.45       71.29       71.13       70.99       70.86       70.74       70.64    
        70.54       70.45       70.37       70.30       70.24       70.18       70.13       70.09       70.04       70.00    
  49  -1000.0     -1000.0     -1000.0     -1000.0     -1000.0       78.08       77.98       77.82       77.64       77.43    
        77.27       77.07       76.84       76.59       76.30       76.00       75.69       75.39       75.09       74.80    
        74.52       74.24       73.96       73.69       73.43       73.17       72.93       72.69       72.46       72.24    
        72.03       71.83       71.64       71.47       71.30       71.15       71.01       70.87       70.76       70.65    
        70.55       70.46       70.38       70.31       70.25       70.19       70.14       70.09       70.04       70.00    
  50  -1000.0     -1000.0     -1000.0     -1000.0     -1000.0     -1000.0     -1000.0     -1000.0     -1000.0     -1000.0    
      -1000.0     -1000.0     -1000.0     -1000.0     -1000.0     -1000.0     -1000.0     -1000.0     -1000.0     -1000.0    
      -1000.0     -1000.0     -1000.0     -1000.0     -1000.0     -1000.0     -1000.0     -1000.0     -1000.0     -1000.0    
      -1000.0     -1000.0     -1000.0     -1000.0     -1000.0     -1000.0     -1000.0     -1000.0     -1000.0     -1000.0    
      -1000.0     -1000.0     -1000.0     -1000.0     -1000.0     -1000.0     -1000.0     -1000.0     -1000.0       70.00    
1
              HEAD IN LAYER   2 AT END OF TIME STEP   1 IN STRESS PERIOD    1
  ---------------------------------------------------------------------------

            1           2           3           4           5           6           7           8           9          10
           11          12          13          14          15          16          17          18          19          20
           21          22          23          24          25          26          27          28          29          30
           31          32          33          34          35          36          37          38          39          40
           41          42          43          44          45          46          47          48          49          50
 ........................................................................................................................
   1  -1000.0     -1000.0     -1000.0     -1000.0     -1000.0     -1000.0     -1000.0     -1000.0     -1000.0     -1000.0    
      -1000.0     -1000.0     -1000.0     -1000.0     -1000.0     -1000.0     -1000.0     -1000.0     -1000.0     -1000.0    
      -1000.0     -1000.0     -1000.0     -1000.0     -1000.0     -1000.0     -1000.0     -1000.0     -1000.0     -1000.0    
      -1000.0     -1000.0     -1000.0     -1000.0     -1000.0     -1000.0     -1000.0     -1000.0     -1000.0     -1000.0    
      -1000.0     -1000.0     -1000.0     -1000.0     -1000.0     -1000.0     -1000.0     -1000.0     -1000.0       70.00    
   2  -1000.0     -1000.0     -1000.0     -1000.0     -1000.0     -1000.0     -1000.0       73.76       73.54       73.29    
        73.12       72.92       72.70       72.47       72.23       71.99       71.78       71.59       71.42       71.27    
        71.13       71.01       70.90       70.80       70.71       70.62       70.54       70.46       70.39       70.32    
        70.25       70.19       70.13       70.08       70.04       70.00       69.96       69.93       69.91       69.90    
        69.89       69.88       69.88       69.89       69.90       69.92       69.93       69.95       69.98       70.00    
   3  -1000.0     -1000.0     -1000.0     -1000.0     -1000.0     -1000.0       73.97       73.76       73.51       73.32    
        73.12       72.91       72.68       72.45       72.21       71.97       71.75       71.56       71.40       71.25    
        71.12       71.00       70.89       70.79       70.70       70.61       70.53       70.46       70.38       70.31    
        70.25       70.18       70.13       70.08       70.03       69.99       69.96       69.93       69.91       69.89    
        69.88       69.88       69.88       69.89       69.90       69.91       69.93       69.95       69.98       70.00    
   4  -1000.0     -1000.0     -1000.0     -1000.0     -1000.0       74.17       73.97       73.73       73.54       73.33    
        73.11       72.88       72.64       72.40       72.16       71.91       71.70       71.52       71.36       71.22    
        71.09       70.98       70.87       70.78       70.69       70.60       70.52       70.45       70.37       70.30    
        70.24       70.18       70.12       70.07       70.02       69.98       69.94       69.92       69.89       69.88    
        69.87       69.87       69.87       69.88       69.89       69.91       69.93       69.95       69.97       70.00    
   5  -1000.0     -1000.0     -1000.0     -1000.0       74.38       74.19       73.96       73.77       73.56       73.33    
        73.09       72.84       72.58       72.33       72.07       71.83       71.62       71.45       71.30       71.17    
        71.05       70.95       70.85       70.76       70.67       70.59       70.51       70.43       70.36       70.29    
        70.22       70.16       70.10       70.05       70.00       69.96       69.93       69.90       69.88       69.86    
        69.85       69.85       69.85       69.86       69.88       69.90       69.92       69.94       69.97       70.00    
   6  -1000.0     -1000.0     -1000.0       74.58       74.41       74.19       74.00       73.79       73.56       73.31    
        73.05       72.77       72.49       72.22       71.96       71.71       71.51       71.35       71.21       71.10    
        71.00       70.91       70.82       70.73       70.65       70.57       70.50       70.42       70.35       70.27    
        70.21       70.14       70.08       70.03       69.98       69.94       69.90       69.87       69.85       69.84    
        69.83       69.83       69.83       69.84       69.86       69.88       69.91       69.94       69.97       70.00    
   7  -1000.0     -1000.0       74.75       74.61       74.42       74.25       74.05       73.82       73.56       73.28    
        72.99       72.67       72.36       72.06       71.79       71.55       71.37       71.23       71.11       71.02    
        70.94       70.86       70.78       70.71       70.63       70.55       70.48       70.40       70.33       70.25    
        70.18       70.12       70.06       70.00       69.95       69.91       69.87       69.84       69.82       69.80    
        69.80       69.80       69.81       69.82       69.84       69.87       69.90       69.93       69.96       70.00    
   8  -1000.0       74.86       74.78       74.64       74.49       74.31       74.09       73.84       73.56       73.25    
        72.91       72.55       72.19       71.86       71.57       71.33       71.18       71.07       70.99       70.93    
        70.87       70.81       70.75       70.68       70.61       70.54       70.46       70.38       70.31       70.23    
        70.16       70.09       70.03       69.97       69.91       69.87       69.83       69.80       69.78       69.76    
        69.76       69.76       69.77       69.79       69.82       69.85       69.88       69.92       69.96       70.00    
   9  -1000.0       74.91       74.83       74.71       74.56       74.37       74.14       73.87       73.56       73.21    
        72.82       72.40       71.98       71.58       71.25       71.04       70.93       70.88       70.86       70.84    
        70.81       70.77       70.72       70.66       70.59       70.52       70.44       70.36       70.28       70.21    
        70.13       70.06       69.99       69.93       69.87       69.82       69.78       69.75       69.73       69.72    
        69.71       69.72       69.73       69.76       69.78       69.82       69.86       69.90       69.95       70.00    
  10  -1000.0       74.98       74.91       74.79       74.64       74.44       74.20       73.91       73.57       73.17    
        72.72       72.23       71.70       71.19       70.80       70.64       70.63       70.67       70.72       70.75    
        70.75       70.73       70.69       70.64       70.58       70.51       70.43       70.35       70.26       70.18    
        70.10       70.02       69.95       69.88       69.82       69.77       69.73       69.69       69.67       69.66    
        69.66       69.67       69.69       69.71       69.75       69.79       69.84       69.89       69.94       70.00    
  11  -1000.0       75.05       75.00       74.89       74.73       74.53       74.28       73.97       73.60       73.17    
        72.65       72.05       71.37       70.65       70.08       70.08       70.27       70.46       70.60       70.68    
        70.72       70.72       70.69       70.64       70.57       70.50       70.42       70.33       70.24       70.15    
        70.06       69.98       69.90       69.83       69.76       69.71       69.66       69.63       69.60       69.59    
        69.59       69.61       69.63       69.66       69.70       69.75       69.81       69.87       69.93       70.00    
  12  -1000.0       75.16       75.11       75.00       74.85       74.64       74.38       74.06       73.68       73.21    
        72.63       71.93       71.03       69.92       68.75       69.33       69.91       70.29       70.53       70.66    
        70.72       70.73       70.70       70.65       70.58       70.50       70.41       70.31       70.22       70.12    
        70.02       69.93       69.85       69.77       69.70       69.64       69.59       69.55       69.53       69.51    
        69.52       69.53       69.56       69.60       69.65       69.71       69.78       69.85       69.92       70.00    
  13  -1000.0       75.29       75.24       75.14       74.99       74.78       74.52       74.20       73.80       73.32    
        72.72       71.95       70.89       69.18       65.53       68.57       69.73       70.28       70.56       70.71    
        70.77       70.78       70.74       70.68       70.60       70.51       70.41       70.30       70.19       70.08    
        69.98       69.88       69.78       69.70       69.62       69.55       69.50       69.46       69.43       69.42    
        69.43       69.45       69.49       69.53       69.59       69.66       69.74       69.82       69.91       70.00    
  14  -1000.0       75.45       75.40       75.30       75.15       74.95       74.69       74.37       73.98       73.51    
        72.94       72.22       71.33       70.20       69.03       69.59       70.15       70.52       70.74       70.85    
        70.88       70.86       70.81       70.73       70.63       70.52       70.41       70.29       70.17       70.05    
        69.93       69.82       69.72       69.62       69.53       69.46       69.40       69.36       69.33       69.32    
        69.33       69.36       69.40       69.46       69.53       69.61       69.70       69.79       69.90       70.00    
  15  -1000.0       75.63       75.59       75.49       75.34       75.15       74.90       74.59       74.22       73.78    
        73.26       72.65       71.95       71.22       70.63       70.60       70.76       70.91       71.01       71.05    
        71.04       70.98       70.90       70.80       70.68       70.55       70.41       70.28       70.14       70.01    
        69.88       69.76       69.64       69.53       69.44       69.35       69.29       69.24       69.21       69.20    
        69.21       69.25       69.30       69.37       69.45       69.54       69.65       69.76       69.88       70.00    
  16  -1000.0       75.84       75.79       75.70       75.56       75.37       75.13       74.84       74.49       74.09    
        73.63       73.12       72.57       72.04       71.62       71.42       71.37       71.36       71.35       71.31    
        71.24       71.13       71.01       70.88       70.73       70.58       70.42       70.27       70.12       69.97    
        69.83       69.69       69.56       69.44       69.33       69.24       69.16       69.10       69.07       69.07    
        69.08       69.12       69.19       69.26       69.36       69.47       69.59       69.72       69.86       70.00    
  17  -1000.0       76.06       76.01       75.93       75.79       75.61       75.39       75.12       74.80       74.43    
        74.03       73.59       73.13       72.70       72.34       72.08       71.92       71.81       71.71       71.60    
        71.46       71.31       71.14       70.97       70.79       70.61       70.43       70.26       70.09       69.92    
        69.76       69.61       69.47       69.34       69.21       69.11       69.02       68.95       68.92       68.91    
        68.94       68.99       69.06       69.15       69.26       69.39       69.53       69.68       69.84       70.00    
  18  -1000.0       76.30       76.25       76.17       76.04       75.88       75.67       75.41       75.12       74.79    
        74.42       74.04       73.64       73.27       72.93       72.64       72.42       72.24       72.08       71.90    
        71.70       71.49       71.28       71.06       70.85       70.64       70.44       70.24       70.06       69.87    
        69.70       69.53       69.37       69.23       69.09       68.97       68.86       68.79       68.75       68.74    
        68.77       68.83       68.92       69.03       69.15       69.29       69.45       69.63       69.81       70.00    
  19  -1000.0       76.55       76.51       76.43       76.31       76.15       75.95       75.72       75.45       75.14    
        74.81       74.46       74.11       73.76       73.43       73.13       72.88       72.66       72.45       72.22    
        71.96       71.68       71.41       71.16       70.91       70.67       70.44       70.23       70.02       69.82    
        69.63       69.45       69.28       69.11       68.96       68.82       68.70       68.61       68.56       68.56    
        68.60       68.67       68.77       68.89       69.03       69.19       69.37       69.57       69.78       70.00    
  20  -1000.0       76.82       76.78       76.70       76.59       76.44       76.25       76.03       75.78       75.50    
        75.19       74.87       74.53       74.20       73.87       73.56       73.29       73.06       72.85       72.57    
        72.22       71.87       71.54       71.24       70.96       70.69       70.44       70.20       69.98       69.76    
        69.56       69.36       69.18       69.00       68.82       68.67       68.53       68.42       68.35       68.36    
        68.41       68.50       68.62       68.75       68.91       69.08       69.28       69.50       69.75       70.00    
  21  -1000.0       77.09       77.06       76.99       76.88       76.74       76.56       76.35       76.11       75.85    
        75.56       75.25       74.93       74.60       74.27       73.95       73.67       73.44       73.31       72.99    
        72.47       72.04       71.66       71.31       71.00       70.70       70.43       70.18       69.93       69.71    
        69.49       69.28       69.08       68.88       68.70       68.52       68.36       68.23       68.15       68.16    
        68.23       68.34       68.46       68.61       68.78       68.97       69.19       69.43       69.71       70.00    
  22  -1000.0       77.38       77.35       77.28       77.18       77.04       76.87       76.67       76.45       76.19    
        75.91       75.61       75.30       74.97       74.63       74.29       73.98       73.72       73.55       73.19    
        72.62       72.16       71.74       71.37       71.02       70.71       70.42       70.15       69.89       69.65    
        69.42       69.20       68.99       68.78       68.59       68.40       68.22       68.07       67.96       67.99    
        68.08       68.19       68.32       68.48       68.65       68.85       69.09       69.36       69.66       70.00    
  23  -1000.0       77.67       77.64       77.58       77.48       77.35       77.19       77.00       76.78       76.53    
        76.26       75.96       75.65       75.31       74.97       74.60       74.25       73.91       73.58       73.17    
        72.69       72.23       71.80       71.40       71.04       70.71       70.41       70.12       69.85       69.60    
        69.36       69.13       68.91       68.70       68.50       68.30       68.13       67.98       67.89       67.90    
        67.97       68.07       68.20       68.36       68.54       68.75       68.99       69.29       69.62       70.00    
  24  -1000.0       77.97       77.94       77.88       77.78       77.66       77.50       77.32       77.10       76.86    
        76.60       76.31       75.99       75.65       75.28       74.89       74.50       74.10       73.68       73.22    
        72.74       72.28       71.84       71.44       71.07       70.73       70.40       70.10       69.82       69.56    
        69.31       69.08       68.85       68.64       68.43       68.24       68.07       67.93       67.85       67.84    
        67.89       67.99       68.11       68.26       68.44       68.66       68.92       69.23       69.59       70.00    
  25  -1000.0       78.28       78.25       78.19       78.09       77.97       77.82       77.64       77.43       77.20    
        76.93       76.64       76.33       75.98       75.60       75.19       74.75       74.30       73.82       73.32    
        72.79       72.32       71.88       71.47       71.09       70.76       70.42       70.10       69.81       69.54    
        69.29       69.05       68.82       68.60       68.39       68.20       68.03       67.91       67.83       67.81    
        67.85       67.93       68.05       68.20       68.38       68.60       68.87       69.19       69.57       70.00    
  26  -1000.0       78.27       78.24       78.18       78.09       77.97       77.82       77.65       77.44       77.21    
        76.94       76.65       76.33       75.98       75.59       75.16       74.70       74.21       73.70       73.19    
        72.78       72.34       71.90       71.49       71.11       70.76       70.42       70.10       69.81       69.54    
        69.28       69.04       68.80       68.58       68.37       68.18       68.01       67.88       67.80       67.78    
        67.81       67.89       68.00       68.15       68.34       68.56       68.83       69.16       69.55       70.00    
  27  -1000.0       78.26       78.23       78.17       78.09       77.97       77.82       77.65       77.45       77.22    
        76.96       76.67       76.35       75.99       75.60       75.17       74.71       74.23       73.73       73.22    
        72.82       72.39       71.96       71.55       71.16       70.81       70.47       70.16       69.86       69.59    
        69.33       69.08       68.84       68.61       68.40       68.20       68.03       67.89       67.81       67.79    
        67.82       67.90       68.02       68.17       68.35       68.57       68.84       69.17       69.56       70.00    
  28  -1000.0       78.26       78.23       78.17       78.09       77.97       77.83       77.66       77.46       77.23    
        76.97       76.68       76.37       76.01       75.63       75.20       74.76       74.30       73.82       73.33    
        72.92       72.49       72.07       71.66       71.28       70.92       70.58       70.27       69.98       69.70    
        69.44       69.18       68.94       68.71       68.49       68.28       68.10       67.95       67.86       67.85    
        67.89       67.97       68.09       68.24       68.42       68.64       68.91       69.22       69.59       70.00    
  29  -1000.0       78.26       78.23       78.18       78.09       77.98       77.84       77.67       77.47       77.25    
        76.99       76.71       76.39       76.04       75.66       75.24       74.81       74.37       73.92       73.47    
        73.04       72.62       72.21       71.81       71.43       71.07       70.74       70.43       70.13       69.85    
        69.59       69.33       69.09       68.85       68.63       68.41       68.22       68.05       67.95       67.94    
        68.00       68.10       68.22       68.37       68.55       68.76       69.00       69.30       69.63       70.00    
  30  -1000.0       78.26       78.24       78.18       78.10       77.99       77.85       77.68       77.49       77.26    
        77.01       76.73       76.42       76.08       75.70       75.29       74.88       74.45       74.03       73.60    
        73.18       72.77       72.36       71.98       71.60       71.25       70.92       70.61       70.32       70.04    
        69.77       69.51       69.27       69.03       68.80       68.59       68.38       68.21       68.08       68.09    
        68.16       68.26       68.38       68.52       68.69       68.89       69.12       69.38       69.68       70.00    
  31  -1000.0       78.27       78.24       78.19       78.10       78.00       77.86       77.69       77.50       77.28    
        77.03       76.76       76.45       76.11       75.75       75.35       74.94       74.54       74.13       73.72    
        73.31       72.91       72.52       72.14       71.78       71.44       71.11       70.80       70.51       70.23    
        69.97       69.71       69.47       69.23       69.01       68.79       68.60       68.44       68.33       68.32    
        68.37       68.45       68.56       68.69       68.85       69.03       69.23       69.47       69.73       70.00    
  32  -1000.0       78.28       78.25       78.20       78.11       78.01       77.87       77.71       77.52       77.30    
        77.06       76.79       76.49       76.16       75.80       75.41       75.01       74.62       74.23       73.83    
        73.44       73.05       72.68       72.31       71.96       71.62       71.30       71.00       70.71       70.43    
        70.17       69.91       69.67       69.44       69.23       69.02       68.84       68.70       68.60       68.57    
        68.60       68.66       68.75       68.87       69.01       69.17       69.35       69.55       69.77       70.00    
  33  -1000.0       78.28       78.26       78.21       78.13       78.02       77.89       77.73       77.54       77.33    
        77.09       76.82       76.52       76.20       75.85       75.47       75.08       74.70       74.32       73.94    
        73.56       73.19       72.82       72.47       72.13       71.80       71.48       71.18       70.90       70.63    
        70.37       70.12       69.88       69.66       69.45       69.26       69.09       68.96       68.87       68.83    
        68.84       68.88       68.95       69.04       69.16       69.30       69.45       69.62       69.81       70.00    
  34  -1000.0       78.29       78.27       78.22       78.14       78.03       77.90       77.74       77.56       77.35    
        77.11       76.85       76.56       76.24       75.90       75.53       75.15       74.78       74.41       74.05    
        73.68       73.31       72.96       72.62       72.28       71.96       71.66       71.36       71.08       70.81    
        70.56       70.32       70.09       69.87       69.67       69.49       69.33       69.21       69.12       69.07    
        69.06       69.09       69.14       69.21       69.30       69.42       69.55       69.69       69.84       70.00    
  35  -1000.0       78.31       78.28       78.23       78.15       78.05       77.92       77.76       77.58       77.37    
        77.14       76.88       76.60       76.29       75.95       75.58       75.22       74.86       74.50       74.14    
        73.78       73.43       73.09       72.75       72.43       72.12       71.82       71.53       71.26       70.99    
        70.74       70.51       70.28       70.08       69.88       69.71       69.56       69.44       69.35       69.30    
        69.27       69.28       69.31       69.37       69.44       69.53       69.63       69.75       69.87       70.00    
  36  -1000.0       78.32       78.29       78.24       78.16       78.06       77.93       77.78       77.60       77.40    
        77.17       76.91       76.63       76.33       76.00       75.64       75.28       74.93       74.58       74.23    
        73.88       73.54       73.21       72.88       72.57       72.26       71.97       71.69       71.42       71.16    
        70.92       70.69       70.47       70.27       70.08       69.92       69.77       69.65       69.56       69.50    
        69.47       69.46       69.47       69.51       69.56       69.63       69.71       69.80       69.90       70.00    
  37  -1000.0       78.33       78.30       78.25       78.17       78.07       77.95       77.80       77.62       77.42    
        77.19       76.94       76.67       76.37       76.04       75.69       75.34       75.00       74.65       74.31    
        73.97       73.64       73.32       73.00       72.69       72.40       72.11       71.83       71.57       71.32    
        71.08       70.85       70.64       70.45       70.27       70.10       69.96       69.85       69.75       69.68    
        69.64       69.62       69.62       69.64       69.67       69.72       69.78       69.85       69.92       70.00    
  38  -1000.0       78.34       78.31       78.26       78.19       78.09       77.96       77.81       77.64       77.44    
        77.22       76.97       76.70       76.40       76.08       75.74       75.40       75.06       74.72       74.39    
        74.06       73.73       73.42       73.11       72.81       72.52       72.24       71.97       71.71       71.46    
        71.23       71.01       70.80       70.61       70.43       70.28       70.14       70.02       69.92       69.85    
        69.79       69.76       69.75       69.75       69.77       69.80       69.84       69.89       69.94       70.00    
  39  -1000.0       78.35       78.32       78.27       78.20       78.10       77.97       77.83       77.65       77.46    
        77.24       77.00       76.73       76.44       76.12       75.78       75.45       75.11       74.78       74.46    
        74.13       73.82       73.51       73.20       72.91       72.63       72.35       72.09       71.83       71.59    
        71.36       71.15       70.94       70.76       70.58       70.43       70.29       70.17       70.07       69.99    
        69.93       69.89       69.86       69.85       69.86       69.87       69.89       69.93       69.96       70.00    
  40  -1000.0       78.36       78.33       78.28       78.21       78.11       77.98       77.84       77.67       77.47    
        77.26       77.02       76.76       76.47       76.16       75.83       75.49       75.17       74.84       74.52    
        74.20       73.89       73.59       73.29       73.00       72.72       72.46       72.20       71.95       71.71    
        71.48       71.27       71.07       70.89       70.72       70.56       70.43       70.31       70.20       70.12    
        70.05       70.00       69.96       69.94       69.93       69.93       69.94       69.96       69.98       70.00    
  41  -1000.0       78.37       78.34       78.29       78.21       78.11       77.99       77.84       77.68       77.49    
        77.27       77.04       76.78       76.50       76.19       75.86       75.54       75.21       74.89       74.58    
        74.27       73.96       73.66       73.37       73.09       72.81       72.55       72.29       72.05       71.81    
        71.59       71.38       71.19       71.01       70.84       70.68       70.55       70.42       70.32       70.23    
        70.16       70.10       70.05       70.02       70.00       69.99       69.98       69.99       69.99       70.00    
  42  -1000.0       78.40       78.35       78.30       78.22       78.12       77.99       77.85       77.68       77.50    
        77.29       77.06       76.80       76.52       76.22       75.89       75.57       75.25       74.94       74.63    
        74.32       74.02       73.73       73.44       73.16       72.89       72.63       72.38       72.14       71.91    
        71.69       71.48       71.29       71.11       70.94       70.79       70.65       70.53       70.42       70.33    
        70.25       70.18       70.13       70.09       70.06       70.03       70.02       70.01       70.00       70.00    
  43  -1000.0       78.43       78.39       78.30       78.22       78.11       77.99       77.85       77.69       77.50    
        77.30       77.07       76.82       76.54       76.24       75.92       75.60       75.29       74.98       74.67    
        74.37       74.07       73.78       73.50       73.22       72.96       72.70       72.45       72.21       71.99    
        71.77       71.57       71.38       71.20       71.03       70.88       70.74       70.61       70.50       70.41    
        70.32       70.25       70.19       70.14       70.10       70.07       70.05       70.03       70.01       70.00    
  44  -1000.0     -1000.0       78.41       78.33       78.21       78.11       77.99       77.85       77.69       77.50    
        77.30       77.08       76.83       76.56       76.26       75.94       75.63       75.32       75.01       74.71    
        74.41       74.12       73.83       73.55       73.28       73.01       72.76       72.52       72.28       72.06    
        71.84       71.64       71.45       71.27       71.11       70.95       70.81       70.69       70.57       70.47    
        70.39       70.31       70.25       70.19       70.15       70.11       70.07       70.05       70.02       70.00    
  45  -1000.0     -1000.0     -1000.0       78.35       78.24       78.09       77.97       77.84       77.68       77.50    
        77.30       77.08       76.84       76.57       76.28       75.96       75.65       75.34       75.04       74.74    
        74.44       74.15       73.87       73.59       73.32       73.06       72.81       72.57       72.33       72.11    
        71.90       71.70       71.51       71.33       71.17       71.01       70.87       70.75       70.63       70.53    
        70.44       70.36       70.29       70.23       70.18       70.13       70.10       70.06       70.03       70.00    
  46  -1000.0     -1000.0     -1000.0     -1000.0       78.24       78.12       77.95       77.82       77.67       77.49    
        77.30       77.08       76.84       76.58       76.29       75.98       75.67       75.36       75.06       74.76    
        74.47       74.18       73.90       73.63       73.36       73.10       72.85       72.61       72.38       72.16    
        71.95       71.75       71.56       71.38       71.22       71.06       70.92       70.79       70.68       70.57    
        70.48       70.40       70.32       70.26       70.20       70.16       70.11       70.07       70.04       70.00    
  47  -1000.0     -1000.0     -1000.0     -1000.0     -1000.0       78.12       77.98       77.79       77.65       77.48    
        77.29       77.08       76.84       76.58       76.30       75.99       75.68       75.38       75.08       74.78    
        74.49       74.20       73.92       73.65       73.39       73.13       72.88       72.64       72.41       72.19    
        71.98       71.78       71.59       71.42       71.25       71.10       70.96       70.83       70.71       70.61    
        70.51       70.43       70.35       70.28       70.22       70.17       70.12       70.08       70.04       70.00    
  48  -1000.0     -1000.0     -1000.0     -1000.0     -1000.0     -1000.0       77.98       77.82       77.62       77.46    
        77.28       77.07       76.84       76.59       76.30       75.99       75.69       75.39       75.09       74.79    
        74.50       74.22       73.94       73.67       73.40       73.15       72.90       72.66       72.43       72.21    
        72.00       71.80       71.62       71.44       71.28       71.12       70.98       70.85       70.73       70.63    
        70.53       70.44       70.37       70.30       70.24       70.18       70.13       70.09       70.04       70.00    
  49  -1000.0     -1000.0     -1000.0     -1000.0     -1000.0     -1000.0     -1000.0       77.82       77.64       77.43    
        77.27       77.07       76.84       76.59       76.30       76.00       75.69       75.39       75.09       74.80    
        74.51       74.22       73.95       73.68       73.41       73.16       72.91       72.67       72.44       72.22    
        72.01       71.82       71.63       71.45       71.29       71.14       70.99       70.86       70.75       70.64    
        70.54       70.45       70.38       70.31       70.24       70.19       70.14       70.09       70.04       70.00    
  50  -1000.0     -1000.0     -1000.0     -1000.0     -1000.0     -1000.0     -1000.0     -1000.0     -1000.0     -1000.0    
      -1000.0     -1000.0     -1000.0     -1000.0     -1000.0     -1000.0     -1000.0     -1000.0     -1000.0     -1000.0    
      -1000.0     -1000.0     -1000.0     -1000.0     -1000.0     -1000.0     -1000.0     -1000.0     -1000.0     -1000.0    
      -1000.0     -1000.0     -1000.0     -1000.0     -1000.0     -1000.0     -1000.0     -1000.0     -1000.0     -1000.0    
      -1000.0     -1000.0     -1000.0     -1000.0     -1000.0     -1000.0     -1000.0     -1000.0     -1000.0       70.00    
1
              HEAD IN LAYER   3 AT END OF TIME STEP   1 IN STRESS PERIOD    1
  ---------------------------------------------------------------------------

            1           2           3           4           5           6           7           8           9          10
           11          12          13          14          15          16          17          18          19          20
           21          22          23          24          25          26          27          28          29          30
[...]
        72.80       72.43       72.10       71.78       71.48       71.19       70.91       70.62       70.34       70.05    
        69.76       69.46       69.14       68.80       68.43       68.02       67.53       66.95       66.40       66.89    
        67.40       67.82       68.17       68.48       68.77       69.03       69.28       69.52       69.76       70.00    
  24  -1000.0       77.97       77.94       77.88       77.78       77.66       77.50       77.32       77.10       76.86    
        76.60       76.31       75.99       75.65       75.28       74.89       74.50       74.10       73.68       73.22    
        72.86       72.52       72.18       71.87       71.56       71.26       70.97       70.68       70.38       70.09    
        69.79       69.47       69.15       68.81       68.45       68.08       67.69       67.32       67.10       67.25    
        67.55       67.87       68.18       68.47       68.74       69.01       69.26       69.51       69.76       70.00    
  25  -1000.0       78.28       78.25       78.19       78.09       77.97       77.82       77.64       77.43       77.20    
        76.93       76.64       76.32       75.98       75.60       75.19       74.75       74.30       73.82       73.32    
        72.92       72.58       72.26       71.94       71.64       71.33       71.03       70.73       70.43       70.13    
        69.82       69.51       69.18       68.84       68.49       68.15       67.82       67.55       67.41       67.47    
        67.67       67.92       68.19       68.47       68.74       69.00       69.26       69.51       69.75       70.00    
  26  -1000.0       78.27       78.24       78.18       78.09       77.97       77.82       77.65       77.44       77.21    
        76.94       76.65       76.33       75.98       75.59       75.16       74.70       74.21       73.70       73.19    
        72.93       72.63       72.33       72.02       71.71       71.41       71.10       70.80       70.50       70.19    
        69.87       69.55       69.22       68.88       68.54       68.20       67.89       67.64       67.52       67.56    
        67.72       67.95       68.21       68.48       68.75       69.01       69.26       69.51       69.75       70.00    
  27  -1000.0       78.26       78.23       78.17       78.09       77.97       77.82       77.65       77.45       77.22    
        76.96       76.67       76.35       75.99       75.60       75.17       74.71       74.23       73.73       73.22    
        72.98       72.70       72.40       72.10       71.79       71.49       71.18       70.87       70.57       70.25    
        69.94       69.61       69.28       68.93       68.58       68.22       67.89       67.61       67.47       67.52    
        67.71       67.96       68.23       68.50       68.76       69.02       69.27       69.52       69.76       70.00    
  28  -1000.0       78.26       78.23       78.17       78.09       77.97       77.83       77.66       77.46       77.23    
        76.97       76.68       76.37       76.01       75.63       75.20       74.76       74.30       73.82       73.33    
        73.07       72.78       72.48       72.18       71.88       71.57       71.26       70.96       70.65       70.33    
        70.02       69.69       69.35       68.99       68.62       68.23       67.82       67.45       67.21       67.35    
        67.63       67.94       68.24       68.52       68.79       69.04       69.29       69.53       69.77       70.00    
  29  -1000.0       78.26       78.23       78.18       78.09       77.98       77.84       77.67       77.47       77.25    
        76.99       76.71       76.39       76.04       75.66       75.24       74.81       74.37       73.92       73.47    
        73.18       72.88       72.58       72.27       71.97       71.66       71.36       71.05       70.74       70.43    
        70.11       69.78       69.44       69.07       68.68       68.24       67.73       67.14       66.56       67.03    
        67.53       67.93       68.27       68.57       68.83       69.08       69.32       69.55       69.78       70.00    
  30  -1000.0       78.26       78.24       78.18       78.10       77.99       77.85       77.68       77.49       77.26    
        77.01       76.73       76.42       76.08       75.70       75.29       74.88       74.45       74.03       73.60    
        73.29       72.98       72.68       72.37       72.07       71.76       71.46       71.15       70.84       70.53    
        70.22       69.89       69.55       69.19       68.79       68.32       67.72       66.80       64.86       66.69    
        67.50       67.99       68.35       68.64       68.90       69.13       69.36       69.58       69.79       70.00    
  31  -1000.0       78.27       78.24       78.19       78.10       78.00       77.86       77.69       77.50       77.28    
        77.03       76.76       76.45       76.11       75.75       75.35       74.94       74.54       74.13       73.72    
        73.40       73.09       72.78       72.48       72.17       71.87       71.56       71.26       70.95       70.65    
        70.34       70.02       69.69       69.34       68.96       68.53       68.04       67.45       66.87       67.33    
        67.80       68.18       68.49       68.75       68.99       69.20       69.41       69.61       69.81       70.00    
  32  -1000.0       78.28       78.25       78.20       78.11       78.01       77.87       77.71       77.52       77.30    
        77.06       76.79       76.49       76.16       75.80       75.41       75.01       74.62       74.23       73.83    
        73.51       73.20       72.89       72.58       72.28       71.97       71.67       71.37       71.07       70.77    
        70.47       70.16       69.85       69.52       69.18       68.82       68.44       68.07       67.83       67.95    
        68.19       68.44       68.67       68.89       69.09       69.28       69.47       69.65       69.82       70.00    
  33  -1000.0       78.28       78.26       78.21       78.13       78.02       77.89       77.73       77.54       77.33    
        77.09       76.82       76.52       76.20       75.85       75.47       75.08       74.70       74.32       73.94    
        73.62       73.31       72.99       72.69       72.38       72.08       71.78       71.49       71.20       70.90    
        70.61       70.32       70.02       69.72       69.41       69.11       68.82       68.57       68.43       68.44    
        68.55       68.71       68.88       69.04       69.21       69.37       69.53       69.69       69.84       70.00    
  34  -1000.0       78.29       78.27       78.22       78.14       78.03       77.90       77.74       77.56       77.35    
        77.11       76.85       76.56       76.24       75.90       75.53       75.15       74.78       74.41       74.05    
        73.72       73.41       73.10       72.79       72.49       72.19       71.90       71.61       71.32       71.04    
        70.75       70.47       70.20       69.92       69.65       69.39       69.16       68.97       68.85       68.83    
        68.87       68.96       69.08       69.20       69.33       69.46       69.60       69.73       69.87       70.00    
  35  -1000.0       78.31       78.28       78.23       78.15       78.05       77.92       77.76       77.58       77.37    
        77.14       76.88       76.60       76.29       75.95       75.58       75.22       74.86       74.50       74.14    
        73.82       73.51       73.20       72.89       72.59       72.30       72.01       71.72       71.44       71.17    
        70.90       70.63       70.37       70.12       69.88       69.65       69.45       69.29       69.19       69.14    
        69.15       69.19       69.27       69.35       69.45       69.56       69.66       69.78       69.89       70.00    
  36  -1000.0       78.32       78.29       78.24       78.16       78.06       77.93       77.78       77.60       77.40    
        77.17       76.91       76.63       76.33       76.00       75.64       75.28       74.93       74.58       74.23    
        73.91       73.60       73.29       72.99       72.69       72.40       72.12       71.84       71.57       71.30    
        71.04       70.78       70.54       70.30       70.08       69.88       69.70       69.56       69.46       69.40    
        69.38       69.40       69.44       69.50       69.57       69.64       69.73       69.82       69.91       70.00    
  37  -1000.0       78.33       78.30       78.25       78.17       78.07       77.95       77.80       77.62       77.42    
        77.19       76.94       76.67       76.37       76.04       75.69       75.34       75.00       74.65       74.31    
        74.00       73.69       73.38       73.08       72.79       72.50       72.22       71.95       71.68       71.42    
        71.17       70.93       70.70       70.48       70.27       70.08       69.92       69.79       69.69       69.62    
        69.58       69.58       69.59       69.63       69.67       69.73       69.79       69.86       69.93       70.00    
  38  -1000.0       78.34       78.31       78.26       78.19       78.09       77.96       77.81       77.64       77.44    
        77.22       76.97       76.70       76.40       76.08       75.74       75.40       75.06       74.72       74.39    
        74.07       73.77       73.46       73.17       72.88       72.60       72.32       72.06       71.80       71.54    
        71.30       71.07       70.84       70.63       70.44       70.26       70.11       69.98       69.88       69.80    
        69.76       69.73       69.73       69.74       69.77       69.80       69.85       69.89       69.95       70.00    
  39  -1000.0       78.35       78.32       78.27       78.20       78.10       77.97       77.83       77.65       77.46    
        77.24       77.00       76.73       76.44       76.12       75.78       75.45       75.11       74.78       74.46    
        74.15       73.84       73.54       73.25       72.97       72.69       72.42       72.15       71.90       71.65    
        71.42       71.19       70.98       70.78       70.59       70.42       70.27       70.15       70.04       69.96    
        69.91       69.87       69.85       69.84       69.85       69.87       69.90       69.93       69.96       70.00    
  40  -1000.0       78.36       78.33       78.28       78.21       78.11       77.98       77.84       77.67       77.47    
        77.26       77.02       76.76       76.47       76.16       75.83       75.49       75.17       74.84       74.52    
        74.21       73.91       73.61       73.33       73.04       72.77       72.50       72.25       72.00       71.76    
        71.52       71.31       71.10       70.90       70.72       70.56       70.42       70.29       70.18       70.10    
        70.03       69.98       69.95       69.94       69.93       69.93       69.94       69.96       69.98       70.00    
  41  -1000.0       78.37       78.34       78.29       78.21       78.11       77.99       77.84       77.68       77.49    
        77.27       77.04       76.78       76.50       76.19       75.86       75.54       75.21       74.89       74.58    
        74.27       73.97       73.68       73.39       73.12       72.85       72.58       72.33       72.08       71.85    
        71.62       71.41       71.21       71.02       70.84       70.68       70.54       70.41       70.31       70.22    
        70.14       70.09       70.04       70.01       70.00       69.99       69.98       69.99       69.99       70.00    
  42  -1000.0     -1000.0       78.35       78.30       78.22       78.12       77.99       77.85       77.68       77.50    
        77.29       77.06       76.80       76.52       76.22       75.89       75.57       75.25       74.94       74.63    
        74.32       74.03       73.74       73.46       73.18       72.91       72.65       72.40       72.16       71.93    
        71.71       71.50       71.30       71.11       70.94       70.79       70.64       70.52       70.41       70.31    
        70.24       70.17       70.12       70.08       70.05       70.03       70.02       70.01       70.00       70.00    
  43  -1000.0     -1000.0     -1000.0       78.30       78.22       78.11       77.99       77.85       77.69       77.50    
        77.30       77.07       76.82       76.54       76.24       75.92       75.60       75.29       74.98       74.67    
        74.37       74.08       73.79       73.51       73.24       72.97       72.72       72.47       72.23       72.00    
        71.78       71.58       71.38       71.20       71.03       70.87       70.73       70.61       70.50       70.40    
        70.31       70.24       70.19       70.14       70.10       70.07       70.05       70.03       70.01       70.00    
  44  -1000.0     -1000.0     -1000.0     -1000.0       78.21       78.11       77.99       77.85       77.69       77.50    
        77.30       77.08       76.83       76.56       76.26       75.94       75.63       75.32       75.01       74.71    
        74.41       74.12       73.83       73.56       73.29       73.02       72.77       72.52       72.29       72.06    
        71.85       71.64       71.45       71.27       71.10       70.95       70.81       70.68       70.57       70.47    
        70.38       70.30       70.24       70.19       70.14       70.10       70.07       70.05       70.02       70.00    
  45  -1000.0     -1000.0     -1000.0     -1000.0     -1000.0       78.09       77.97       77.84       77.68       77.50    
        77.30       77.08       76.84       76.57       76.28       75.96       75.65       75.34       75.04       74.74    
        74.44       74.15       73.87       73.59       73.33       73.07       72.81       72.57       72.34       72.12    
        71.90       71.70       71.51       71.33       71.16       71.01       70.87       70.74       70.63       70.52    
        70.43       70.35       70.28       70.23       70.17       70.13       70.09       70.06       70.03       70.00    
  46  -1000.0     -1000.0     -1000.0     -1000.0     -1000.0     -1000.0       77.95       77.82       77.66       77.49    
        77.30       77.08       76.84       76.58       76.29       75.98       75.67       75.36       75.06       74.76    
        74.47       74.18       73.90       73.62       73.36       73.10       72.85       72.61       72.38       72.16    
        71.95       71.74       71.56       71.38       71.21       71.06       70.92       70.79       70.67       70.57    
        70.47       70.39       70.32       70.26       70.20       70.15       70.11       70.07       70.03       70.00    
  47  -1000.0     -1000.0     -1000.0     -1000.0     -1000.0     -1000.0     -1000.0       77.79       77.65       77.48    
        77.29       77.08       76.84       76.58       76.30       75.99       75.68       75.38       75.08       74.78    
        74.49       74.20       73.92       73.65       73.38       73.13       72.88       72.64       72.41       72.19    
        71.98       71.78       71.59       71.41       71.25       71.09       70.95       70.82       70.71       70.60    
        70.50       70.42       70.35       70.28       70.22       70.17       70.12       70.08       70.04       70.00    
  48  -1000.0     -1000.0     -1000.0     -1000.0     -1000.0     -1000.0     -1000.0     -1000.0       77.62       77.46    
        77.28       77.07       76.84       76.59       76.30       75.99       75.69       75.39       75.09       74.79    
        74.50       74.21       73.94       73.66       73.40       73.14       72.90       72.66       72.43       72.21    
        72.00       71.80       71.61       71.44       71.27       71.12       70.98       70.85       70.73       70.62    
        70.53       70.44       70.36       70.29       70.23       70.18       70.13       70.08       70.04       70.00    
  49  -1000.0     -1000.0     -1000.0     -1000.0     -1000.0     -1000.0     -1000.0     -1000.0     -1000.0       77.43    
        77.27       77.07       76.84       76.59       76.30       76.00       75.69       75.39       75.09       74.80    
        74.51       74.22       73.94       73.67       73.41       73.15       72.90       72.67       72.44       72.22    
        72.01       71.81       71.62       71.45       71.28       71.13       70.99       70.86       70.74       70.63    
        70.54       70.45       70.37       70.30       70.24       70.18       70.13       70.09       70.04       70.00    
  50  -1000.0     -1000.0     -1000.0     -1000.0     -1000.0     -1000.0     -1000.0     -1000.0     -1000.0     -1000.0    
      -1000.0     -1000.0     -1000.0     -1000.0     -1000.0     -1000.0     -1000.0     -1000.0     -1000.0     -1000.0    
      -1000.0     -1000.0     -1000.0     -1000.0     -1000.0     -1000.0     -1000.0     -1000.0     -1000.0     -1000.0    
      -1000.0     -1000.0     -1000.0     -1000.0     -1000.0     -1000.0     -1000.0     -1000.0     -1000.0     -1000.0    
      -1000.0     -1000.0     -1000.0     -1000.0     -1000.0     -1000.0     -1000.0     -1000.0     -1000.0       70.00    

 HEAD WILL BE SAVED ON UNIT   51 AT END OF TIME STEP    1, STRESS PERIOD    1

 DRAWDOWN WILL BE SAVED ON UNIT   52 AT END OF TIME STEP    1, STRESS PERIOD    1
1
  VOLUMETRIC BUDGET FOR ENTIRE MODEL AT END OF TIME STEP    1, STRESS PERIOD   1
  ------------------------------------------------------------------------------

     CUMULATIVE VOLUMES      L**3       RATES FOR THIS TIME STEP      L**3/T
     ------------------                 ------------------------

           IN:                                      IN:
           ---                                      ---
             STORAGE =           0.0000               STORAGE =           0.0000
       CONSTANT HEAD =        3010.6719         CONSTANT HEAD =        3010.6719
               WELLS =         375.0000                 WELLS =         375.0000
       RIVER LEAKAGE =        6000.0000         RIVER LEAKAGE =        6000.0000
                  ET =           0.0000                    ET =           0.0000
            RECHARGE =        7120.0000              RECHARGE =        7120.0000

            TOTAL IN =       16505.6719              TOTAL IN =       16505.6719

          OUT:                                     OUT:
          ----                                     ----
             STORAGE =           0.0000               STORAGE =           0.0000
       CONSTANT HEAD =          80.4128         CONSTANT HEAD =          80.4128
               WELLS =        7500.0000                 WELLS =        7500.0000
       RIVER LEAKAGE =           0.0000         RIVER LEAKAGE =           0.0000
                  ET =        8925.2500                    ET =        8925.2500
            RECHARGE =           0.0000              RECHARGE =           0.0000

           TOTAL OUT =       16505.6621             TOTAL OUT =       16505.6621

            IN - OUT =       9.7656E-03              IN - OUT =       9.7656E-03

 PERCENT DISCREPANCY =           0.00     PERCENT DISCREPANCY =           0.00






         TIME SUMMARY AT END OF TIME STEP    1 IN STRESS PERIOD    1
                    SECONDS     MINUTES      HOURS       DAYS        YEARS
                    -----------------------------------------------------------
   TIME STEP LENGTH  86400.      1440.0      24.000      1.0000     2.73785E-03
 STRESS PERIOD TIME  86400.      1440.0      24.000      1.0000     2.73785E-03
         TOTAL TIME  86400.      1440.0      24.000      1.0000     2.73785E-03
1

 Run end date and time (yyyy/mm/dd hh:mm:ss): 2026/02/25  7:14:49
 Elapsed run time: 11.511 Seconds

