                                  MODFLOW-2005     
      U.S. GEOLOGICAL SURVEY MODULAR FINITE-DIFFERENCE GROUND-WATER FLOW MODEL
                            VERSION 1.12.00 2/3/2017

 LIST FILE: static_ensemble_S2wel_1133113.list
                         UNIT    2

 OPENING static_ensemble_S2wel_1133113.dis
 FILE TYPE:DIS   UNIT   11   STATUS:OLD    
 FORMAT:FORMATTED              ACCESS:SEQUENTIAL          

 OPENING static_ensemble_S2wel_1133113.bas
 FILE TYPE:BAS6   UNIT   13   STATUS:OLD    
 FORMAT:FORMATTED              ACCESS:SEQUENTIAL          

 OPENING static_ensemble_S2wel_1133113.lpf
 FILE TYPE:LPF   UNIT   15   STATUS:OLD    
 FORMAT:FORMATTED              ACCESS:SEQUENTIAL          

 OPENING static_ensemble_S2wel_1133113.evt
 FILE TYPE:EVT   UNIT   22   STATUS:OLD    
 FORMAT:FORMATTED              ACCESS:SEQUENTIAL          

 OPENING static_ensemble_S2wel_1133113.rch
 FILE TYPE:RCH   UNIT   19   STATUS:OLD    
 FORMAT:FORMATTED              ACCESS:SEQUENTIAL          

 OPENING static_ensemble_S2wel_1133113.riv
 FILE TYPE:RIV   UNIT   18   STATUS:OLD    
 FORMAT:FORMATTED              ACCESS:SEQUENTIAL          

 OPENING static_ensemble_S2wel_1133113.wel
 FILE TYPE:WEL   UNIT   20   STATUS:OLD    
 FORMAT:FORMATTED              ACCESS:SEQUENTIAL          

 OPENING static_ensemble_S2wel_1133113.oc
 FILE TYPE:OC   UNIT   14   STATUS:OLD    
 FORMAT:FORMATTED              ACCESS:SEQUENTIAL          

 OPENING static_ensemble_S2wel_1133113.pcg
 FILE TYPE:PCG   UNIT   27   STATUS:OLD    
 FORMAT:FORMATTED              ACCESS:SEQUENTIAL          

 OPENING static_ensemble_S2wel_1133113.cbc
 FILE TYPE:DATA(BINARY)   UNIT   53   STATUS:REPLACE
 FORMAT:UNFORMATTED            ACCESS:STREAM              

 OPENING static_ensemble_S2wel_1133113.hds
 FILE TYPE:DATA(BINARY)   UNIT   51   STATUS:REPLACE
 FORMAT:UNFORMATTED            ACCESS:STREAM              

 OPENING static_ensemble_S2wel_1133113.ddn
 FILE TYPE:DATA(BINARY)   UNIT   52   STATUS:REPLACE
 FORMAT:UNFORMATTED            ACCESS:STREAM              

 BAS -- BASIC PACKAGE, VERSION 7, 5/2/2005 INPUT READ FROM UNIT   13
 
 MODFLOW was compiled using mixed precision
 Precision of REAL variables:           6
 Precision of DOUBLE PRECISION variables:          15

 DISCRETIZATION INPUT DATA READ FROM UNIT   11
 # DIS package for MODFLOW-2005 generated by Flopy 3.10.0
    3 LAYERS        50 ROWS        50 COLUMNS
    1 STRESS PERIOD(S) IN SIMULATION
 MODEL TIME UNIT IS DAYS
 MODEL LENGTH UNIT IS METERS
  Confining bed flag for each layer:
   0   0   0

                     DELR =   1000.00    

                     DELC =   1000.00    



           TOP ELEVATION OF LAYER 1
 READING ON UNIT   11 WITH FORMAT: (50E15.6)           



             MODEL LAYER BOTTOM EL. FOR LAYER   1
 READING ON UNIT   11 WITH FORMAT: (50E15.6)           



             MODEL LAYER BOTTOM EL. FOR LAYER   2
 READING ON UNIT   11 WITH FORMAT: (50E15.6)           



             MODEL LAYER BOTTOM EL. FOR LAYER   3
 READING ON UNIT   11 WITH FORMAT: (50E15.6)           


 STRESS PERIOD     LENGTH       TIME STEPS     MULTIPLIER FOR DELT    SS FLAG
 ----------------------------------------------------------------------------
        1         1.000000          1                    1.000         SS

 STEADY-STATE SIMULATION



 
 # BAS6 package for MODFLOW-2005 generated by Flopy 3.10.0                       
 THE FREE FORMAT OPTION HAS BEEN SELECTED



                     BOUNDARY ARRAY FOR LAYER   1
 READING ON UNIT   13 WITH FORMAT: (50I10)             



                     BOUNDARY ARRAY FOR LAYER   2
 READING ON UNIT   13 WITH FORMAT: (50I10)             



                     BOUNDARY ARRAY FOR LAYER   3
 READING ON UNIT   13 WITH FORMAT: (50I10)             

 AQUIFER HEAD WILL BE SET TO  -999.99     AT ALL NO-FLOW NODES (IBOUND=0).



                       INITIAL HEAD FOR LAYER   1
 READING ON UNIT   13 WITH FORMAT: (50E15.6)           



                       INITIAL HEAD FOR LAYER   2
 READING ON UNIT   13 WITH FORMAT: (50E15.6)           



                       INITIAL HEAD FOR LAYER   3
 READING ON UNIT   13 WITH FORMAT: (50E15.6)           
 # OC package for MODFLOW-2005 generated by Flopy 3.10.0

 OUTPUT CONTROL IS SPECIFIED ONLY AT TIME STEPS FOR WHICH OUTPUT IS DESIRED
 COMPACT CELL-BY-CELL BUDGET FILES WILL BE WRITTEN
 AUXILIARY DATA WILL BE SAVED IN CELL-BY-CELL BUDGET FILES
 HEAD PRINT FORMAT CODE IS   0    DRAWDOWN PRINT FORMAT CODE IS   0
 HEADS WILL BE SAVED ON UNIT   51    DRAWDOWNS WILL BE SAVED ON UNIT   52

 LPF -- LAYER-PROPERTY FLOW PACKAGE, VERSION 7, 5/2/2005
         INPUT READ FROM UNIT   15
 # LPF package for MODFLOW-2005 generated by Flopy 3.10.0
 CELL-BY-CELL FLOWS WILL BE SAVED ON UNIT   53
 HEAD AT CELLS THAT CONVERT TO DRY= -1.00000E+30
 No named parameters
 STORAGECOEFFICIENT OPTION:
 Read storage coefficient rather than specific storage

   LAYER FLAGS:
 LAYER       LAYTYP        LAYAVG         CHANI        LAYVKA        LAYWET
 ---------------------------------------------------------------------------
    1             1             0     1.000E+00             0             0
    2             1             0     1.000E+00             0             0
    3             1             0     1.000E+00             0             0

   INTERPRETATION OF LAYER FLAGS:
                        INTERBLOCK     HORIZONTAL    DATA IN
         LAYER TYPE   TRANSMISSIVITY   ANISOTROPY   ARRAY VKA   WETTABILITY
 LAYER      (LAYTYP)      (LAYAVG)       (CHANI)      (LAYVKA)      (LAYWET)
 ---------------------------------------------------------------------------
    1   CONVERTIBLE      HARMONIC     1.000E+00    VERTICAL K  NON-WETTABLE
    2   CONVERTIBLE      HARMONIC     1.000E+00    VERTICAL K  NON-WETTABLE
    3   CONVERTIBLE      HARMONIC     1.000E+00    VERTICAL K  NON-WETTABLE

 WETTING CAPABILITY IS NOT ACTIVE IN ANY LAYER



              HYD. COND. ALONG ROWS FOR LAYER   1
 READING ON UNIT   15 WITH FORMAT: (50E15.6)           



                VERTICAL HYD. COND. FOR LAYER   1
 READING ON UNIT   15 WITH FORMAT: (50E15.6)           



              HYD. COND. ALONG ROWS FOR LAYER   2
 READING ON UNIT   15 WITH FORMAT: (50E15.6)           



                VERTICAL HYD. COND. FOR LAYER   2
 READING ON UNIT   15 WITH FORMAT: (50E15.6)           



              HYD. COND. ALONG ROWS FOR LAYER   3
 READING ON UNIT   15 WITH FORMAT: (50E15.6)           



                VERTICAL HYD. COND. FOR LAYER   3
 READING ON UNIT   15 WITH FORMAT: (50E15.6)           

 WEL -- WELL PACKAGE, VERSION 7, 5/2/2005 INPUT READ FROM UNIT   20
 # WEL package for MODFLOW-2005 generated by Flopy 3.10.0
 No named parameters
 MAXIMUM OF      4 ACTIVE WELLS AT ONE TIME


     0 Well parameters

 RIV -- RIVER PACKAGE, VERSION 7, 5/2/2005 INPUT READ FROM UNIT   18
 # RIV package for MODFLOW-2005 generated by Flopy 3.10.0
 No named parameters
 MAXIMUM OF     49 ACTIVE RIVER REACHES AT ONE TIME
 CELL-BY-CELL FLOWS WILL BE SAVED ON UNIT   53


     0 River parameters

 EVT -- EVAPOTRANSPIRATION PACKAGE, VERSION 7, 5/2/2005
         INPUT READ FROM UNIT   22
 # EVT package for MODFLOW-2005 generated by Flopy 3.10.0
 No named parameters
 OPTION 3 -- EVAPOTRANSPIRATION FROM HIGHEST ACTIVE NODE IN EACH VERTICAL COLUMN
 CELL-BY-CELL FLOWS WILL BE SAVED ON UNIT   53


     0 Evapotranspiration parameters

 RCH -- RECHARGE PACKAGE, VERSION 7, 5/2/2005 INPUT READ FROM UNIT   19
 # RCH package for MODFLOW-2005 generated by Flopy 3.10.0
 No named parameters
 OPTION 3 -- RECHARGE TO HIGHEST ACTIVE NODE IN EACH VERTICAL COLUMN
 CELL-BY-CELL FLOWS WILL BE SAVED ON UNIT   53


     0 Recharge parameters

 PCG -- CONJUGATE-GRADIENT SOLUTION PACKAGE, VERSION 7, 5/2/2005
 # PCG package for MODFLOW-2005 generated by Flopy 3.10.0
 MAXIMUM OF   5000 CALLS OF SOLUTION ROUTINE
 MAXIMUM OF    500 INTERNAL ITERATIONS PER CALL TO SOLUTION ROUTINE
 MATRIX PRECONDITIONING TYPE :    1



                                    SOLUTION BY THE CONJUGATE-GRADIENT METHOD
                                   -------------------------------------------
                    MAXIMUM NUMBER OF CALLS TO PCG ROUTINE =     5000
                        MAXIMUM ITERATIONS PER CALL TO PCG =      500
                               MATRIX PRECONDITIONING TYPE =        1
        RELAXATION FACTOR (ONLY USED WITH PRECOND. TYPE 1) =    0.97000E+00
 PARAMETER OF POLYNOMIAL PRECOND. = 2 (2) OR IS CALCULATED :        0
                         HEAD CHANGE CRITERION FOR CLOSURE =    0.10000E-04
                     RESIDUAL CHANGE CRITERION FOR CLOSURE =    0.10000E-04
            PCG HEAD AND RESIDUAL CHANGE PRINTOUT INTERVAL =      999
     PRINTING FROM SOLVER IS LIMITED(1) OR SUPPRESSED (>1) =        3
                            STEADY-STATE DAMPING PARAMETER =    0.10000E-01
                               TRANSIENT DAMPING PARAMETER =    0.10000E-01
1
                            STRESS PERIOD NO.    1, LENGTH =   1.000000    
                            -----------------------------------------------

                              NUMBER OF TIME STEPS =     1

                               MULTIPLIER FOR DELT =     1.000

                            INITIAL TIME STEP SIZE =   1.000000    

 WELL NO.  LAYER   ROW   COL   STRESS RATE         
 --------------------------------------------------
      1      3     22     39      -1500.    
      2      1     13     15      -4500.    
      3      1     25     26       375.0    
      4      3     30     39      -1500.    

      4 WELLS

 REACH NO.  LAYER   ROW   COL     STAGE      CONDUCTANCE     BOTTOM EL.         
 -------------------------------------------------------------------------------
      1      1     25      2       100.5           5000.           98.00    
      2      1     25      3       99.50           5000.           97.00    
      3      1     25      4       98.50           5000.           96.00    
      4      1     25      5       97.50           5000.           95.00    
      5      1     25      6       96.50           5000.           94.00    
      6      1     25      7       95.50           5000.           93.00    
      7      1     25      8       94.50           5000.           92.00    
      8      1     25      9       93.50           5000.           91.00    
      9      1     25     10       92.50           5000.           90.00    
     10      1     25     11       91.50           5000.           89.00    
     11      1     25     12       90.50           5000.           88.00    
     12      1     25     13       89.50           5000.           87.00    
     13      1     25     14       88.50           5000.           86.00    
     14      1     25     15       87.50           5000.           85.00    
     15      1     25     16       86.50           5000.           84.00    
     16      1     25     17       85.50           5000.           83.00    
     17      1     25     18       84.50           5000.           82.00    
     18      1     25     19       83.50           5000.           81.00    
     19      1     25     20       82.50           5000.           80.00    
     20      1     25     21       81.50           5000.           79.00    
     21      1     25     22       80.50           5000.           78.00    
     22      1     25     23       79.50           5000.           77.00    
     23      1     25     24       78.50           5000.           76.00    
     24      1     25     25       77.50           5000.           75.00    
     25      1     25     26       77.40           5000.           74.90    
     26      1     25     27       77.30           5000.           74.80    
     27      1     25     28       77.20           5000.           74.70    
     28      1     25     29       77.10           5000.           74.60    
     29      1     25     30       77.00           5000.           74.50    
     30      1     25     31       76.90           5000.           74.40    
     31      1     25     32       76.80           5000.           74.30    
     32      1     25     33       76.70           5000.           74.20    
     33      1     25     34       76.60           5000.           74.10    
     34      1     25     35       76.50           5000.           74.00    
     35      1     25     36       76.40           5000.           73.90    
     36      1     25     37       76.30           5000.           73.80    
     37      1     25     38       76.20           5000.           73.70    
     38      1     25     39       76.10           5000.           73.60    
     39      1     25     40       76.00           5000.           73.50    
     40      1     25     41       75.90           5000.           73.40    
     41      1     25     42       75.80           5000.           73.30    
     42      1     25     43       75.70           5000.           73.20    
     43      1     25     44       75.60           5000.           73.10    
     44      1     25     45       75.50           5000.           73.00    
     45      1     25     46       75.40           5000.           72.90    
     46      1     25     47       75.30           5000.           72.80    
     47      1     25     48       75.20           5000.           72.70    
     48      1     25     49       75.10           5000.           72.60    
     49      1     25     50       75.00           5000.           72.50    

     49 RIVER REACHES



                         ET SURFACE
 READING ON UNIT   22 WITH FORMAT: (50E15.6)           



            EVAPOTRANSPIRATION RATE
 READING ON UNIT   22 WITH FORMAT: (50E15.6)           

         EXTINCTION DEPTH =   10.0000    



                           RECHARGE
 READING ON UNIT   19 WITH FORMAT: (50E15.6)           
 
 SOLVING FOR HEAD 

 OUTPUT CONTROL FOR STRESS PERIOD    1   TIME STEP    1
    SAVE HEAD FOR ALL LAYERS
    SAVE DRAWDOWN FOR ALL LAYERS
    SAVE BUDGET
    PRINT HEAD FOR ALL LAYERS
    PRINT BUDGET
 UBDSV2 SAVING "   CONSTANT HEAD" ON UNIT  53 AT TIME STEP  1, STRESS PERIOD   1
 UBDSV1 SAVING "FLOW RIGHT FACE " ON UNIT  53 AT TIME STEP  1, STRESS PERIOD   1
 UBDSV1 SAVING "FLOW FRONT FACE " ON UNIT  53 AT TIME STEP  1, STRESS PERIOD   1
 UBDSV1 SAVING "FLOW LOWER FACE " ON UNIT  53 AT TIME STEP  1, STRESS PERIOD   1
 UBDSV4 SAVING "   RIVER LEAKAGE" ON UNIT  53 AT TIME STEP  1, STRESS PERIOD   1
 UBDSV3 SAVING "              ET" ON UNIT  53 AT TIME STEP  1, STRESS PERIOD   1
 UBDSV3 SAVING "        RECHARGE" ON UNIT  53 AT TIME STEP  1, STRESS PERIOD   1
1
              HEAD IN LAYER   1 AT END OF TIME STEP   1 IN STRESS PERIOD    1
  ---------------------------------------------------------------------------

            1           2           3           4           5           6           7           8           9          10
           11          12          13          14          15          16          17          18          19          20
           21          22          23          24          25          26          27          28          29          30
           31          32          33          34          35          36          37          38          39          40
           41          42          43          44          45          46          47          48          49          50
 ........................................................................................................................
   1  -1000.0     -1000.0     -1000.0     -1000.0     -1000.0     -1000.0     -1000.0     -1000.0     -1000.0     -1000.0    
      -1000.0     -1000.0     -1000.0     -1000.0     -1000.0     -1000.0     -1000.0     -1000.0     -1000.0     -1000.0    
      -1000.0     -1000.0     -1000.0     -1000.0     -1000.0     -1000.0     -1000.0     -1000.0     -1000.0     -1000.0    
      -1000.0     -1000.0     -1000.0     -1000.0     -1000.0     -1000.0     -1000.0     -1000.0     -1000.0     -1000.0    
      -1000.0     -1000.0     -1000.0     -1000.0     -1000.0     -1000.0     -1000.0     -1000.0     -1000.0       70.00    
   2  -1000.0     -1000.0     -1000.0     -1000.0     -1000.0       99.59       99.32       98.86       98.30       97.65    
        97.10       96.46       95.72       94.90       94.01       93.04       92.10       91.19       90.32       89.47    
        88.70       87.94       87.20       86.48       85.77       85.08       84.40       83.73       83.07       82.42    
        81.77       81.14       80.51       79.89       79.28       78.67       78.06       77.46       76.86       76.26    
        75.66       75.05       74.45       73.84       73.22       72.60       71.97       71.33       70.67       70.00    
   3  -1000.0     -1000.0     -1000.0     -1000.0       99.95       99.69       99.31       98.83       98.23       97.69    
        97.10       96.44       95.69       94.87       93.97       93.00       92.06       91.15       90.28       89.44    
        88.66       87.91       87.17       86.45       85.75       85.06       84.38       83.71       83.05       82.40    
        81.76       81.13       80.50       79.88       79.27       78.66       78.05       77.45       76.85       76.25    
        75.65       75.05       74.44       73.83       73.22       72.60       71.97       71.32       70.67       70.00    
   4  -1000.0     -1000.0     -1000.0       100.3       100.0       99.70       99.28       98.73       98.25       97.70    
        97.08       96.39       95.62       94.79       93.89       92.91       91.98       91.07       90.21       89.37    
        88.60       87.85       87.12       86.40       85.70       85.01       84.33       83.67       83.01       82.36    
        81.73       81.10       80.47       79.86       79.25       78.64       78.04       77.44       76.84       76.24    
        75.64       75.04       74.44       73.83       73.21       72.59       71.96       71.32       70.67       70.00    
   5  -1000.0     -1000.0       100.5       100.3       100.0       99.66       99.18       98.74       98.23       97.66    
        97.01       96.30       95.52       94.67       93.76       92.78       91.85       90.95       90.09       89.26    
        88.50       87.76       87.04       86.33       85.63       84.95       84.27       83.61       82.96       82.31    
        81.68       81.05       80.43       79.82       79.21       78.61       78.01       77.41       76.81       76.22    
        75.62       75.02       74.42       73.82       73.21       72.59       71.96       71.32       70.67       70.00    
   6  -1000.0       100.7       100.5       100.3       99.99       99.56       99.17       98.71       98.18       97.58    
        96.91       96.17       95.37       94.50       93.58       92.60       91.67       90.79       89.94       89.12    
        88.38       87.65       86.93       86.23       85.54       84.86       84.19       83.54       82.89       82.25    
        81.62       80.99       80.38       79.77       79.16       78.57       77.97       77.38       76.78       76.19    
        75.60       75.00       74.41       73.80       73.19       72.58       71.95       71.32       70.67       70.00    
   7  -1000.0       100.6       100.5       100.2       99.87       99.53       99.13       98.65       98.09       97.47    
        96.76       95.99       95.16       94.27       93.34       92.36       91.44       90.57       89.75       88.95    
        88.22       87.50       86.80       86.11       85.43       84.75       84.09       83.44       82.80       82.16    
        81.54       80.92       80.31       79.71       79.11       78.51       77.92       77.33       76.75       76.16    
        75.57       74.98       74.39       73.79       73.18       72.57       71.95       71.31       70.66       70.00    
   8  -1000.0       100.5       100.4       100.1       99.82       99.48       99.06       98.56       97.98       97.32    
        96.58       95.77       94.90       93.98       93.03       92.05       91.15       90.31       89.51       88.74    
        88.03       87.33       86.64       85.96       85.29       84.63       83.97       83.33       82.69       82.07    
        81.45       80.83       80.23       79.63       79.04       78.45       77.87       77.28       76.70       76.12    
        75.54       74.95       74.36       73.77       73.17       72.56       71.94       71.31       70.66       70.00    
   9  -1000.0       100.4       100.2       100.0       99.75       99.39       98.96       98.44       97.83       97.14    
        96.36       95.50       94.57       93.60       92.62       91.66       90.79       90.00       89.24       88.51    
        87.82       87.15       86.47       85.80       85.14       84.48       83.84       83.20       82.57       81.95    
        81.34       80.73       80.14       79.55       78.96       78.38       77.80       77.23       76.65       76.08    
        75.50       74.92       74.34       73.75       73.15       72.55       71.93       71.30       70.66       70.00    
  10  -1000.0       100.2       100.1       99.93       99.66       99.29       98.84       98.30       97.67       96.94    
        96.10       95.18       94.17       93.11       92.07       91.15       90.36       89.64       88.94       88.25    
        87.60       86.94       86.28       85.62       84.97       84.32       83.68       83.05       82.43       81.82    
        81.21       80.62       80.03       79.45       78.87       78.30       77.73       77.16       76.60       76.03    
        75.46       74.89       74.31       73.73       73.14       72.54       71.92       71.30       70.66       70.00    
  11  -1000.0       100.1       100.0       99.83       99.55       99.18       98.72       98.15       97.49       96.72    
        95.84       94.83       93.69       92.47       91.29       90.49       89.85       89.25       88.63       87.99    
        87.36       86.72       86.08       85.43       84.79       84.15       83.51       82.89       82.27       81.67    
        81.07       80.49       79.91       79.34       78.77       78.21       77.65       77.09       76.54       75.98    
        75.42       74.86       74.29       73.71       73.12       72.53       71.92       71.29       70.65       70.00    
  12  -1000.0       100.0       99.91       99.72       99.44       99.06       98.58       98.00       97.32       96.51    
        95.58       94.48       93.18       91.65       90.01       89.64       89.31       88.86       88.33       87.74    
        87.13       86.51       85.87       85.23       84.59       83.95       83.32       82.71       82.10       81.50    
        80.92       80.34       79.77       79.21       78.66       78.11       77.56       77.02       76.47       75.93    
        75.38       74.82       74.26       73.69       73.11       72.52       71.91       71.29       70.65       70.00    
  13  -1000.0       99.89       99.80       99.60       99.31       98.93       98.44       97.85       97.15       96.33    
        95.36       94.21       92.78       90.78       87.26       88.76       88.88       88.57       88.08       87.51    
        86.91       86.29       85.65       85.01       84.37       83.74       83.12       82.51       81.91       81.32    
        80.75       80.18       79.63       79.08       78.54       78.00       77.47       76.94       76.41       75.87    
        75.34       74.79       74.24       73.68       73.11       72.52       71.91       71.29       70.66       70.00    
  14  -1000.0       99.78       99.68       99.48       99.19       98.79       98.30       97.70       97.00       96.18    
        95.22       94.10       92.79       91.23       89.58       89.22       88.88       88.44       87.90       87.32    
        86.70       86.07       85.43       84.78       84.14       83.51       82.89       82.29       81.70       81.12    
        80.56       80.01       79.46       78.93       78.41       77.88       77.37       76.85       76.34       75.82    
        75.30       74.77       74.23       73.67       73.11       72.52       71.92       71.30       70.66       70.00    
  15  -1000.0       99.66       99.56       99.36       99.06       98.66       98.16       97.56       96.85       96.04    
        95.12       94.07       92.90       91.65       90.45       89.64       89.00       88.40       87.78       87.15    
        86.51       85.85       85.19       84.54       83.89       83.26       82.65       82.05       81.47       80.90    
        80.35       79.81       79.29       78.77       78.26       77.76       77.26       76.77       76.27       75.77    
        75.26       74.75       74.22       73.68       73.12       72.54       71.94       71.31       70.67       70.00    
  16  -1000.0       99.55       99.44       99.23       98.93       98.52       98.01       97.41       96.71       95.91    
        95.02       94.04       92.98       91.88       90.81       89.87       89.08       88.36       87.67       87.00    
        86.31       85.62       84.94       84.27       83.62       82.98       82.37       81.78       81.21       80.66    
        80.12       79.61       79.10       78.60       78.11       77.63       77.16       76.68       76.20       75.72    
        75.23       74.74       74.22       73.70       73.15       72.57       71.97       71.34       70.68       70.00    
  17  -1000.0       99.43       99.32       99.11       98.79       98.37       97.86       97.25       96.55       95.77    
        94.90       93.97       92.97       91.95       90.93       89.94       89.07       88.28       87.54       86.83    
        86.09       85.37       84.66       83.98       83.31       82.68       82.07       81.48       80.93       80.39    
        79.88       79.38       78.89       78.42       77.96       77.50       77.04       76.59       76.14       75.68    
        75.22       74.74       74.25       73.73       73.19       72.62       72.02       71.38       70.70       70.00    
  18  -1000.0       99.33       99.21       98.99       98.65       98.22       97.69       97.07       96.37       95.59    
        94.74       93.83       92.88       91.89       90.89       89.89       88.98       88.16       87.38       86.64    
        85.85       85.09       84.35       83.64       82.97       82.33       81.72       81.15       80.61       80.10    
        79.61       79.13       78.68       78.23       77.79       77.36       76.93       76.51       76.08       75.65    
        75.21       74.76       74.29       73.79       73.27       72.70       72.09       71.44       70.74       70.00    
  19  -1000.0       99.24       99.11       98.87       98.51       98.05       97.50       96.87       96.15       95.37    
        94.53       93.63       92.70       91.73       90.74       89.73       88.81       87.96       87.18       86.42    
        85.58       84.76       83.99       83.26       82.57       81.93       81.33       80.78       80.26       79.78    
        79.31       78.87       78.44       78.03       77.62       77.22       76.83       76.43       76.04       75.64    
        75.23       74.81       74.36       73.89       73.38       72.82       72.20       71.53       70.79       70.00    
  20  -1000.0       99.17       99.03       98.76       98.37       97.88       97.29       96.63       95.90       95.10    
        94.25       93.36       92.43       91.47       90.48       89.47       88.54       87.71       86.95       86.18    
        85.26       84.38       83.56       82.80       82.11       81.47       80.89       80.36       79.87       79.42    
        78.99       78.58       78.19       77.81       77.44       77.08       76.72       76.36       76.00       75.64    
        75.27       74.88       74.47       74.02       73.54       72.99       72.37       71.67       70.87       70.00    
  21  -1000.0       99.14       98.98       98.67       98.23       97.69       97.06       96.35       95.59       94.77    
        93.91       93.01       92.07       91.11       90.12       89.10       88.19       87.37       86.71       85.94    
        84.86       83.91       83.04       82.26       81.56       80.93       80.38       79.88       79.44       79.02    
        78.64       78.28       77.93       77.59       77.26       76.94       76.62       76.30       75.98       75.66    
        75.33       74.98       74.62       74.21       73.76       73.24       72.62       71.89       71.01       70.00    
  22  -1000.0       99.18       98.97       98.60       98.09       97.48       96.78       96.03       95.23       94.38    
        93.49       92.57       91.62       90.65       89.66       88.64       87.71       86.89       86.22       85.46    
        84.31       83.30       82.40       81.60       80.89       80.29       79.78       79.34       78.95       78.59    
        78.26       77.95       77.65       77.36       77.08       76.80       76.53       76.26       75.98       75.71    
        75.42       75.13       74.81       74.46       74.06       73.58       72.99       72.23       71.24       70.00    
  23  -1000.0       99.32       99.04       98.56       97.94       97.24       96.47       95.65       94.79       93.90    
        92.98       92.04       91.08       90.10       89.10       88.06       87.11       86.24       85.45       84.70    
        83.57       82.55       81.62       80.79       80.08       79.53       79.09       78.73       78.41       78.12    
        77.85       77.60       77.35       77.12       76.89       76.67       76.44       76.22       76.00       75.78    
        75.55       75.31       75.05       74.77       74.44       74.05       73.53       72.79       71.68       70.00    
  24  -1000.0       99.65       99.20       98.55       97.78       96.96       96.09       95.19       94.27       93.34    
        92.38       91.42       90.44       89.45       88.44       87.40       86.42       85.49       84.63       83.87    
        82.69       81.64       80.68       79.80       79.05       78.62       78.29       78.03       77.81       77.60    
        77.41       77.22       77.05       76.87       76.70       76.54       76.37       76.20       76.04       75.87    
        75.70       75.53       75.35       75.15       74.92       74.64       74.28       73.71       72.61       70.00    
  25  -1000.0       100.3       99.48       98.54       97.58       96.61       95.63       94.64       93.66       92.66    
        91.67       90.67       89.68       88.68       87.67       86.66       85.66       84.66       83.68       82.77    
        81.59       80.58       79.58       78.59       77.63       77.55       77.37       77.26       77.15       77.04    
        76.93       76.83       76.72       76.62       76.51       76.41       76.31       76.20       76.10       75.99    
        75.89       75.78       75.68       75.57       75.47       75.36       75.24       75.11       74.85       70.00    
  26  -1000.0       99.93       99.49       98.84       98.08       97.26       96.40       95.51       94.60       93.67    
        92.73       91.76       90.79       89.79       88.77       87.71       86.70       85.74       84.84       84.07    
        82.89       81.85       80.89       80.00       79.25       78.81       78.47       78.20       77.97       77.76    
        77.56       77.36       77.17       76.99       76.81       76.63       76.46       76.28       76.11       75.93    
        75.75       75.57       75.38       75.17       74.94       74.66       74.29       73.71       72.61       70.00    
  27  -1000.0       99.88       99.60       99.13       98.53       97.84       97.09       96.29       95.45       94.58    
        93.68       92.75       91.79       90.80       89.78       88.71       87.70       86.75       85.87       85.09    
        83.99       82.99       82.07       81.23       80.51       79.94       79.48       79.10       78.76       78.44    
        78.15       77.88       77.61       77.36       77.11       76.86       76.62       76.38       76.14       75.89    
        75.65       75.39       75.12       74.83       74.49       74.08       73.55       72.81       71.69       70.00    
  28  -1000.0       100.0       99.81       99.44       98.96       98.37       97.71       96.98       96.21       95.39    
        94.53       93.63       92.69       91.72       90.69       89.62       88.61       87.66       86.78       85.97    
        84.95       83.99       83.10       82.28       81.55       80.92       80.37       79.90       79.47       79.08    
        78.71       78.37       78.03       77.71       77.40       77.09       76.78       76.48       76.18       75.88    
        75.58       75.26       74.92       74.55       74.13       73.64       73.03       72.26       71.25       70.00    
  29  -1000.0       100.2       100.1       99.78       99.37       98.86       98.27       97.61       96.89       96.12    
        95.30       94.43       93.51       92.54       91.53       90.46       89.44       88.49       87.59       86.75    
        85.79       84.87       84.00       83.19       82.44       81.76       81.16       80.62       80.12       79.67    
        79.23       78.82       78.43       78.05       77.68       77.32       76.96       76.60       76.25       75.90    
        75.54       75.16       74.77       74.34       73.86       73.32       72.68       71.93       71.03       70.00    
  30  -1000.0       100.5       100.4       100.1       99.77       99.32       98.79       98.18       97.51       96.77    
        95.98       95.14       94.24       93.29       92.28       91.22       90.20       89.24       88.32       87.46    
        86.53       85.64       84.78       83.98       83.21       82.51       81.86       81.27       80.72       80.20    
        79.72       79.25       78.81       78.38       77.96       77.54       77.14       76.74       76.34       75.93    
        75.52       75.10       74.66       74.19       73.67       73.10       72.45       71.72       70.90       70.00    
  31  -1000.0       100.8       100.7       100.5       100.2       99.76       99.27       98.70       98.07       97.37    
        96.61       95.78       94.90       93.96       92.96       91.90       90.89       89.92       88.99       88.11    
        87.20       86.32       85.48       84.67       83.89       83.16       82.48       81.85       81.26       80.70    
        80.17       79.66       79.17       78.69       78.23       77.77       77.32       76.88       76.44       75.99    
        75.54       75.08       74.60       74.09       73.54       72.95       72.30       71.59       70.82       70.00    
  32  -1000.0       101.1       101.0       100.8       100.5       100.2       99.71       99.18       98.57       97.90    
        97.17       96.37       95.50       94.57       93.58       92.52       91.51       90.53       89.59       88.70    
        87.81       86.94       86.10       85.28       84.50       83.75       83.04       82.38       81.75       81.16    
        80.59       80.04       79.51       78.99       78.49       78.00       77.51       77.03       76.55       76.07    
        75.58       75.08       74.57       74.03       73.46       72.86       72.21       71.51       70.78       70.00    
  33  -1000.0       101.5       101.4       101.2       100.9       100.6       100.1       99.62       99.04       98.39    
        97.67       96.89       96.04       95.12       94.14       93.08       92.07       91.09       90.14       89.23    
        88.35       87.49       86.65       85.83       85.04       84.27       83.55       82.86       82.21       81.58    
        80.98       80.40       79.83       79.28       78.74       78.22       77.70       77.18       76.67       76.16    
        75.64       75.11       74.57       74.01       73.42       72.80       72.15       71.47       70.75       70.00    
  34  -1000.0       101.8       101.7       101.5       101.3       100.9       100.5       100.0       99.46       98.83    
        98.13       97.36       96.53       95.62       94.64       93.59       92.57       91.59       90.64       89.72    
        88.85       87.99       87.15       86.33       85.52       84.75       84.01       83.30       82.62       81.97    
        81.34       80.73       80.14       79.56       78.99       78.43       77.88       77.34       76.80       76.25    
        75.71       75.15       74.59       74.01       73.41       72.78       72.13       71.44       70.74       70.00    
  35  -1000.0       102.1       102.0       101.8       101.6       101.3       100.9       100.4       99.85       99.23    
        98.55       97.79       96.96       96.07       95.09       94.05       93.03       92.05       91.09       90.16    
        89.29       88.43       87.59       86.77       85.96       85.18       84.42       83.70       83.00       82.33    
        81.67       81.04       80.42       79.82       79.22       78.64       78.06       77.49       76.93       76.36    
        75.79       75.21       74.63       74.03       73.41       72.77       72.12       71.43       70.73       70.00    
  36  -1000.0       102.4       102.3       102.1       101.9       101.6       101.2       100.7       100.2       99.60    
        98.92       98.18       97.36       96.47       95.50       94.46       93.45       92.46       91.50       90.57    
        89.69       88.83       87.99       87.16       86.35       85.56       84.80       84.06       83.35       82.66    
        81.98       81.33       80.69       80.06       79.44       78.84       78.24       77.65       77.06       76.47    
        75.88       75.28       74.68       74.06       73.43       72.78       72.12       71.43       70.73       70.00    
  37  -1000.0       102.6       102.5       102.4       102.2       101.9       101.5       101.0       100.5       99.93    
        99.26       98.53       97.72       96.83       95.87       94.83       93.82       92.83       91.87       90.93    
        90.05       89.19       88.35       87.52       86.71       85.91       85.14       84.39       83.66       82.96    
        82.27       81.59       80.93       80.29       79.65       79.03       78.41       77.79       77.18       76.58    
        75.97       75.35       74.73       74.10       73.46       72.80       72.13       71.44       70.73       70.00    
  38  -1000.0       102.9       102.8       102.6       102.4       102.1       101.8       101.3       100.8       100.2    
        99.57       98.84       98.04       97.16       96.20       95.17       94.16       93.17       92.20       91.26    
        90.38       89.52       88.67       87.84       87.03       86.23       85.45       84.69       83.95       83.23    
        82.52       81.83       81.16       80.50       79.85       79.20       78.57       77.94       77.31       76.68    
        76.06       75.43       74.79       74.15       73.49       72.83       72.15       71.45       70.74       70.00    
  39  -1000.0       103.1       103.0       102.9       102.6       102.4       102.0       101.6       101.1       100.5    
        99.84       99.12       98.32       97.45       96.50       95.47       94.46       93.47       92.50       91.56    
        90.68       89.82       88.97       88.13       87.31       86.51       85.72       84.96       84.21       83.48    
        82.76       82.06       81.37       80.69       80.02       79.37       78.71       78.07       77.43       76.78    
        76.14       75.50       74.85       74.20       73.53       72.86       72.17       71.46       70.74       70.00    
  40  -1000.0       103.3       103.2       103.1       102.9       102.6       102.2       101.8       101.3       100.7    
        100.1       99.36       98.57       97.71       96.76       95.73       94.72       93.74       92.77       91.82    
        90.94       90.08       89.23       88.39       87.57       86.76       85.97       85.20       84.44       83.70    
        82.97       82.26       81.56       80.87       80.19       79.52       78.85       78.19       77.54       76.88    
        76.23       75.57       74.91       74.24       73.57       72.88       72.19       71.48       70.75       70.00    
  41  -1000.0       103.4       103.4       103.2       103.0       102.7       102.4       102.0       101.5       100.9    
        100.3       99.58       98.80       97.93       96.99       95.96       94.96       93.97       93.00       92.06    
        91.18       90.32       89.46       88.62       87.80       86.99       86.19       85.41       84.65       83.90    
        83.16       82.44       81.73       81.03       80.34       79.65       78.98       78.30       77.64       76.97    
        76.30       75.64       74.97       74.29       73.61       72.91       72.21       71.49       70.76       70.00    
  42  -1000.0       103.7       103.5       103.4       103.2       102.9       102.6       102.1       101.7       101.1    
        100.5       99.76       98.99       98.13       97.19       96.17       95.16       94.18       93.21       92.26    
        91.39       90.52       89.67       88.83       88.00       87.18       86.38       85.60       84.83       84.07    
        83.33       82.60       81.88       81.17       80.47       79.77       79.09       78.41       77.73       77.05    
        76.38       75.70       75.02       74.33       73.64       72.94       72.23       71.50       70.76       70.00    
  43  -1000.0       103.8       103.7       103.5       103.3       103.0       102.7       102.3       101.8       101.2    
        100.6       99.92       99.15       98.29       97.36       96.34       95.34       94.36       93.39       92.44    
        91.56       90.70       89.84       89.00       88.17       87.36       86.55       85.76       84.99       84.23    
        83.48       82.74       82.01       81.29       80.58       79.88       79.18       78.49       77.81       77.12    
        76.44       75.75       75.07       74.37       73.68       72.97       72.25       71.52       70.77       70.00    
  44  -1000.0       104.0       103.9       103.7       103.4       103.1       102.8       102.4       101.9       101.3    
        100.7       100.0       99.28       98.43       97.50       96.49       95.49       94.51       93.54       92.59    
        91.71       90.85       89.99       89.15       88.32       87.50       86.70       85.90       85.12       84.36    
        83.60       82.86       82.12       81.40       80.68       79.97       79.27       78.57       77.88       77.19    
        76.50       75.80       75.11       74.41       73.71       72.99       72.27       71.53       70.78       70.00    
  45  -1000.0       104.1       104.0       103.8       103.5       103.2       102.8       102.4       102.0       101.4    
        100.8       100.1       99.38       98.54       97.62       96.61       95.61       94.63       93.66       92.71    
        91.84       90.97       90.12       89.28       88.44       87.62       86.81       86.02       85.24       84.46    
        83.70       82.95       82.22       81.49       80.76       80.05       79.34       78.64       77.94       77.24    
        76.54       75.84       75.15       74.44       73.73       73.01       72.28       71.54       70.78       70.00    
  46  -1000.0     -1000.0       104.0       103.8       103.6       103.3       102.8       102.5       102.0       101.5    
        100.9       100.2       99.46       98.63       97.71       96.70       95.70       94.73       93.76       92.81    
        91.94       91.07       90.22       89.37       88.54       87.72       86.91       86.11       85.32       84.55    
        83.79       83.03       82.29       81.56       80.83       80.11       79.40       78.69       77.98       77.28    
        76.58       75.88       75.17       74.47       73.75       73.03       72.30       71.55       70.78       70.00    
  47  -1000.0     -1000.0     -1000.0       103.8       103.6       103.3       102.9       102.5       102.0       101.5    
        100.9       100.3       99.52       98.69       97.77       96.77       95.77       94.80       93.83       92.89    
        92.01       91.15       90.29       89.45       88.61       87.79       86.98       86.18       85.39       84.61    
        83.85       83.09       82.35       81.61       80.88       80.16       79.44       78.73       78.02       77.31    
        76.61       75.90       75.20       74.49       73.77       73.04       72.31       71.56       70.79       70.00    
  48  -1000.0     -1000.0     -1000.0     -1000.0       103.5       103.3       103.0       102.5       102.0       101.5    
        100.9       100.3       99.55       98.73       97.81       96.81       95.82       94.84       93.88       92.93    
        92.06       91.19       90.34       89.49       88.66       87.84       87.03       86.22       85.44       84.66    
        83.89       83.13       82.38       81.64       80.91       80.19       79.47       78.75       78.04       77.34    
        76.63       75.92       75.21       74.50       73.78       73.05       72.31       71.56       70.79       70.00    
  49  -1000.0     -1000.0     -1000.0     -1000.0     -1000.0       103.2       103.0       102.6       102.1       101.4    
        100.9       100.3       99.56       98.74       97.83       96.83       95.84       94.87       93.91       92.96    
        92.08       91.22       90.36       89.52       88.68       87.86       87.05       86.25       85.46       84.68    
        83.91       83.15       82.40       81.66       80.93       80.20       79.48       78.77       78.06       77.35    
        76.64       75.93       75.22       74.50       73.78       73.05       72.32       71.56       70.79       70.00    
  50  -1000.0     -1000.0     -1000.0     -1000.0     -1000.0     -1000.0     -1000.0     -1000.0     -1000.0     -1000.0    
      -1000.0     -1000.0     -1000.0     -1000.0     -1000.0     -1000.0     -1000.0     -1000.0     -1000.0     -1000.0    
      -1000.0     -1000.0     -1000.0     -1000.0     -1000.0     -1000.0     -1000.0     -1000.0     -1000.0     -1000.0    
      -1000.0     -1000.0     -1000.0     -1000.0     -1000.0     -1000.0     -1000.0     -1000.0     -1000.0     -1000.0    
      -1000.0     -1000.0     -1000.0     -1000.0     -1000.0     -1000.0     -1000.0     -1000.0     -1000.0       70.00    
1
              HEAD IN LAYER   2 AT END OF TIME STEP   1 IN STRESS PERIOD    1
  ---------------------------------------------------------------------------

            1           2           3           4           5           6           7           8           9          10
           11          12          13          14          15          16          17          18          19          20
           21          22          23          24          25          26          27          28          29          30
           31          32          33          34          35          36          37          38          39          40
           41          42          43          44          45          46          47          48          49          50
 ........................................................................................................................
   1  -1000.0     -1000.0     -1000.0     -1000.0     -1000.0     -1000.0     -1000.0     -1000.0     -1000.0     -1000.0    
      -1000.0     -1000.0     -1000.0     -1000.0     -1000.0     -1000.0     -1000.0     -1000.0     -1000.0     -1000.0    
      -1000.0     -1000.0     -1000.0     -1000.0     -1000.0     -1000.0     -1000.0     -1000.0     -1000.0     -1000.0    
      -1000.0     -1000.0     -1000.0     -1000.0     -1000.0     -1000.0     -1000.0     -1000.0     -1000.0     -1000.0    
      -1000.0     -1000.0     -1000.0     -1000.0     -1000.0     -1000.0     -1000.0     -1000.0     -1000.0       70.00    
   2  -1000.0     -1000.0     -1000.0     -1000.0     -1000.0     -1000.0     -1000.0       98.86       98.30       97.65    
        97.10       96.46       95.72       94.90       94.01       93.04       92.10       91.19       90.32       89.47    
        88.64       87.84       87.06       86.30       85.57       84.85       84.15       83.46       82.78       82.12    
        81.47       80.82       80.19       79.56       78.94       78.33       77.72       77.12       76.52       75.92    
        75.33       74.74       74.15       73.56       72.97       72.38       71.79       71.20       70.60       70.00    
   3  -1000.0     -1000.0     -1000.0     -1000.0     -1000.0     -1000.0       99.31       98.83       98.23       97.69    
        97.10       96.44       95.69       94.87       93.97       93.00       92.06       91.15       90.28       89.44    
        88.61       87.81       87.03       86.28       85.55       84.83       84.13       83.44       82.77       82.10    
        81.45       80.81       80.17       79.55       78.93       78.32       77.71       77.11       76.51       75.92    
        75.32       74.74       74.15       73.56       72.97       72.38       71.79       71.19       70.60       70.00    
   4  -1000.0     -1000.0     -1000.0     -1000.0     -1000.0       99.70       99.28       98.73       98.25       97.70    
        97.08       96.39       95.62       94.79       93.89       92.91       91.98       91.07       90.21       89.37    
        88.54       87.75       86.98       86.23       85.50       84.79       84.09       83.41       82.73       82.07    
        81.42       80.78       80.15       79.52       78.91       78.29       77.69       77.09       76.49       75.90    
        75.31       74.72       74.14       73.55       72.96       72.37       71.78       71.19       70.60       70.00    
   5  -1000.0     -1000.0     -1000.0     -1000.0       100.0       99.66       99.18       98.74       98.23       97.66    
        97.01       96.30       95.52       94.67       93.76       92.78       91.85       90.95       90.09       89.26    
        88.45       87.66       86.90       86.16       85.44       84.73       84.04       83.35       82.69       82.03    
        81.38       80.74       80.11       79.49       78.87       78.26       77.66       77.06       76.47       75.88    
        75.29       74.71       74.12       73.54       72.95       72.37       71.78       71.19       70.59       70.00    
   6  -1000.0     -1000.0     -1000.0       100.3       99.99       99.56       99.17       98.71       98.18       97.58    
        96.91       96.17       95.37       94.50       93.58       92.60       91.67       90.79       89.94       89.12    
        88.32       87.55       86.80       86.07       85.35       84.65       83.96       83.29       82.62       81.97    
        81.32       80.69       80.06       79.44       78.83       78.22       77.62       77.03       76.43       75.85    
        75.26       74.68       74.10       73.52       72.94       72.35       71.77       71.18       70.59       70.00    
   7  -1000.0     -1000.0       100.5       100.2       99.87       99.53       99.13       98.65       98.09       97.47    
        96.76       95.99       95.16       94.27       93.34       92.36       91.44       90.57       89.75       88.95    
        88.17       87.41       86.67       85.95       85.24       84.55       83.87       83.20       82.54       81.89    
        81.25       80.62       80.00       79.38       78.77       78.17       77.57       76.98       76.39       75.81    
        75.23       74.65       74.07       73.50       72.92       72.34       71.76       71.17       70.59       70.00    
   8  -1000.0       100.5       100.4       100.1       99.82       99.48       99.06       98.56       97.98       97.32    
        96.58       95.77       94.90       93.98       93.03       92.05       91.15       90.31       89.51       88.74    
        87.99       87.25       86.52       85.82       85.12       84.44       83.76       83.10       82.45       81.80    
        81.17       80.54       79.92       79.31       78.70       78.10       77.51       76.93       76.34       75.76    
        75.19       74.62       74.04       73.47       72.90       72.32       71.75       71.17       70.58       70.00    
   9  -1000.0       100.4       100.2       100.0       99.75       99.39       98.96       98.44       97.83       97.14    
        96.36       95.50       94.57       93.60       92.62       91.66       90.79       90.00       89.24       88.51    
        87.78       87.06       86.36       85.67       84.98       84.31       83.64       82.99       82.34       81.70    
        81.07       80.45       79.83       79.22       78.62       78.03       77.44       76.86       76.28       75.71    
        75.14       74.57       74.01       73.44       72.87       72.30       71.73       71.16       70.58       70.00    
  10  -1000.0       100.2       100.1       99.93       99.66       99.29       98.84       98.30       97.67       96.94    
        96.10       95.18       94.17       93.11       92.07       91.15       90.36       89.64       88.94       88.25    
        87.56       86.87       86.18       85.50       84.83       84.16       83.51       82.86       82.22       81.58    
        80.96       80.34       79.73       79.13       78.54       77.95       77.36       76.79       76.22       75.65    
        75.09       74.53       73.97       73.41       72.84       72.28       71.71       71.15       70.57       70.00    
  11  -1000.0       100.1       100.0       99.83       99.55       99.18       98.72       98.15       97.49       96.72    
        95.84       94.83       93.69       92.47       91.29       90.49       89.85       89.25       88.63       87.99    
        87.33       86.66       85.99       85.33       84.66       84.01       83.36       82.72       82.08       81.45    
        80.84       80.22       79.62       79.02       78.44       77.85       77.28       76.71       76.14       75.58    
        75.03       74.47       73.92       73.37       72.81       72.26       71.70       71.13       70.57       70.00    
  12  -1000.0       100.0       99.91       99.72       99.44       99.06       98.58       98.00       97.32       96.51    
        95.58       94.48       93.18       91.64       90.01       89.64       89.31       88.86       88.33       87.74    
        87.10       86.45       85.80       85.14       84.49       83.84       83.20       82.56       81.94       81.32    
        80.70       80.10       79.50       78.91       78.33       77.75       77.18       76.62       76.06       75.51    
        74.96       74.42       73.87       73.33       72.78       72.23       71.68       71.12       70.56       70.00    
  13  -1000.0       99.89       99.80       99.60       99.31       98.93       98.44       97.85       97.15       96.33    
        95.36       94.21       92.78       90.78       87.27       88.76       88.88       88.57       88.08       87.51    
        86.89       86.25       85.60       84.95       84.31       83.66       83.03       82.40       81.78       81.16    
        80.56       79.96       79.37       78.78       78.20       77.63       77.07       76.52       75.97       75.43    
        74.89       74.35       73.82       73.29       72.75       72.21       71.66       71.11       70.56       70.00    
  14  -1000.0       99.78       99.68       99.48       99.19       98.79       98.30       97.70       97.00       96.18    
        95.22       94.10       92.79       91.23       89.58       89.22       88.88       88.44       87.90       87.32    
        86.69       86.05       85.40       84.76       84.12       83.48       82.85       82.23       81.61       81.00    
        80.40       79.81       79.22       78.65       78.07       77.51       76.96       76.41       75.87       75.34    
        74.81       74.29       73.77       73.24       72.72       72.18       71.65       71.10       70.55       70.00    
  15  -1000.0       99.66       99.56       99.36       99.06       98.66       98.16       97.56       96.85       96.04    
        95.12       94.07       92.90       91.65       90.45       89.64       89.00       88.40       87.78       87.15    
        86.51       85.85       85.20       84.56       83.92       83.28       82.66       82.04       81.43       80.83    
        80.24       79.65       79.07       78.50       77.94       77.38       76.83       76.29       75.76       75.24    
        74.73       74.22       73.71       73.20       72.69       72.16       71.63       71.09       70.55       70.00    
  16  -1000.0       99.55       99.44       99.23       98.93       98.52       98.01       97.41       96.71       95.91    
        95.02       94.04       92.98       91.88       90.81       89.87       89.08       88.36       87.67       87.00    
        86.32       85.65       85.00       84.35       83.71       83.08       82.46       81.85       81.25       80.65    
        80.07       79.49       78.91       78.35       77.79       77.24       76.70       76.17       75.65       75.14    
        74.64       74.15       73.66       73.16       72.66       72.15       71.62       71.09       70.55       70.00    
  17  -1000.0       99.43       99.32       99.11       98.79       98.37       97.86       97.25       96.55       95.77    
        94.90       93.97       92.97       91.95       90.93       89.94       89.07       88.28       87.54       86.83    
        86.13       85.45       84.78       84.13       83.49       82.86       82.25       81.64       81.05       80.47    
        79.89       79.32       78.75       78.19       77.64       77.09       76.56       76.03       75.53       75.03    
        74.55       74.08       73.60       73.12       72.64       72.13       71.62       71.09       70.55       70.00    
  18  -1000.0       99.33       99.21       98.99       98.65       98.22       97.69       97.07       96.37       95.59    
        94.74       93.83       92.88       91.89       90.89       89.89       88.98       88.16       87.38       86.64    
        85.92       85.22       84.54       83.89       83.25       82.63       82.03       81.43       80.85       80.27    
        79.70       79.14       78.58       78.03       77.48       76.94       76.41       75.89       75.40       74.92    
        74.46       74.01       73.56       73.10       72.62       72.13       71.62       71.10       70.55       70.00    
  19  -1000.0       99.24       99.11       98.87       98.51       98.05       97.50       96.87       96.15       95.37    
        94.53       93.63       92.70       91.73       90.74       89.73       88.81       87.96       87.18       86.42    
        85.68       84.97       84.29       83.64       83.01       82.40       81.80       81.22       80.64       80.08    
        79.52       78.97       78.42       77.87       77.33       76.79       76.26       75.75       75.26       74.81    
        74.37       73.95       73.52       73.08       72.62       72.14       71.64       71.11       70.56       70.00    
  20  -1000.0       99.17       99.03       98.76       98.37       97.88       97.29       96.63       95.90       95.10    
        94.25       93.36       92.43       91.46       90.48       89.47       88.54       87.71       86.95       86.18    
        85.41       84.69       84.02       83.37       82.75       82.15       81.57       81.00       80.44       79.89    
        79.34       78.80       78.26       77.72       77.18       76.64       76.12       75.60       75.13       74.69    
        74.29       73.90       73.50       73.08       72.64       72.17       71.67       71.14       70.58       70.00    
  21  -1000.0       99.14       98.98       98.67       98.23       97.69       97.06       96.35       95.59       94.77    
        93.91       93.01       92.07       91.11       90.12       89.10       88.19       87.37       86.71       85.94    
        85.10       84.38       83.72       83.09       82.49       81.90       81.34       80.78       80.24       79.70    
        79.17       78.64       78.11       77.58       77.05       76.52       75.99       75.47       75.00       74.59    
        74.23       73.86       73.49       73.10       72.68       72.22       71.72       71.18       70.61       70.00    
  22  -1000.0       99.18       98.97       98.60       98.09       97.47       96.78       96.03       95.23       94.38    
        93.49       92.57       91.62       90.65       89.66       88.64       87.71       86.89       86.22       85.46    
        84.69       84.02       83.41       82.81       82.23       81.67       81.12       80.59       80.06       79.54    
        79.02       78.51       77.99       77.47       76.95       76.42       75.90       75.38       74.89       74.53    
        74.20       73.86       73.51       73.14       72.73       72.29       71.79       71.25       70.64       70.00    
  23  -1000.0       99.32       99.04       98.56       97.94       97.24       96.47       95.65       94.79       93.90    
        92.98       92.04       91.08       90.10       89.10       88.06       87.11       86.24       85.45       84.70    
        84.17       83.65       83.11       82.56       82.01       81.47       80.94       80.42       79.92       79.41    
        78.91       78.40       77.90       77.39       76.88       76.37       75.86       75.37       74.92       74.55    
        74.21       73.89       73.55       73.19       72.80       72.37       71.88       71.33       70.70       70.00    
  24  -1000.0       99.65       99.20       98.55       97.78       96.96       96.09       95.19       94.27       93.34    
        92.38       91.42       90.44       89.45       88.44       87.40       86.42       85.49       84.63       83.87    
        83.67       83.34       82.89       82.38       81.85       81.33       80.82       80.32       79.83       79.33    
        78.84       78.35       77.85       77.35       76.85       76.35       75.86       75.40       74.97       74.59    
        74.25       73.93       73.60       73.25       72.87       72.45       71.97       71.42       70.76       70.00    
  25  -1000.0       100.3       99.48       98.54       97.58       96.61       95.63       94.65       93.66       92.67    
        91.67       90.68       89.68       88.68       87.67       86.66       85.66       84.66       83.68       82.77    
        83.36       83.23       82.85       82.36       81.83       81.32       80.82       80.32       79.83       79.34    
        78.85       78.36       77.86       77.36       76.87       76.37       75.89       75.44       75.02       74.64    
        74.29       73.96       73.63       73.29       72.91       72.50       72.03       71.48       70.82       70.00    
  26  -1000.0       99.93       99.49       98.84       98.08       97.26       96.40       95.51       94.60       93.67    
        92.73       91.76       90.79       89.79       88.77       87.71       86.70       85.74       84.84       84.07    
        83.87       83.55       83.10       82.59       82.05       81.52       81.00       80.49       79.98       79.47    
        78.97       78.46       77.96       77.45       76.94       76.44       75.95       75.49       75.06       74.67    
        74.31       73.97       73.63       73.27       72.89       72.46       71.98       71.42       70.77       70.00    
  27  -1000.0       99.88       99.60       99.13       98.53       97.84       97.09       96.29       95.45       94.58    
        93.68       92.75       91.79       90.80       89.78       88.71       87.70       86.75       85.87       85.09    
        84.58       84.07       83.53       82.97       82.40       81.84       81.29       80.75       80.22       79.69    
        79.16       78.64       78.11       77.58       77.05       76.53       76.03       75.54       75.10       74.69    
        74.32       73.96       73.61       73.23       72.83       72.39       71.90       71.34       70.70       70.00    
  28  -1000.0       100.0       99.81       99.44       98.96       98.37       97.71       96.98       96.21       95.39    
        94.53       93.63       92.69       91.72       90.69       89.62       88.61       87.66       86.78       85.97    
        85.30       84.67       84.05       83.44       82.83       82.23       81.65       81.08       80.51       79.96    
        79.40       78.85       78.30       77.75       77.20       76.65       76.11       75.60       75.13       74.71    
        74.33       73.96       73.59       73.20       72.78       72.32       71.82       71.27       70.65       70.00    
  29  -1000.0       100.2       100.1       99.78       99.37       98.86       98.27       97.61       96.89       96.12    
        95.30       94.43       93.51       92.54       91.53       90.46       89.44       88.49       87.59       86.75    
        86.00       85.29       84.60       83.94       83.29       82.66       82.04       81.44       80.84       80.26    
        79.67       79.10       78.52       77.94       77.37       76.79       76.22       75.67       75.16       74.74    
        74.35       73.97       73.58       73.17       72.74       72.27       71.76       71.21       70.62       70.00    
  30  -1000.0       100.5       100.4       100.1       99.77       99.32       98.79       98.18       97.51       96.77    
        95.98       95.14       94.24       93.29       92.28       91.22       90.20       89.24       88.32       87.46    
        86.65       85.89       85.15       84.45       83.76       83.09       82.44       81.81       81.19       80.57    
        79.96       79.36       78.76       78.16       77.56       76.96       76.36       75.78       75.22       74.80    
        74.40       74.00       73.59       73.16       72.71       72.23       71.72       71.17       70.59       70.00    
  31  -1000.0       100.8       100.7       100.5       100.2       99.76       99.27       98.70       98.07       97.37    
        96.61       95.78       94.90       93.96       92.96       91.90       90.89       89.92       88.99       88.11    
        87.26       86.46       85.69       84.94       84.23       83.53       82.85       82.18       81.53       80.89    
        80.26       79.63       79.01       78.39       77.77       77.16       76.55       75.96       75.41       74.93    
        74.50       74.07       73.63       73.18       72.71       72.22       71.70       71.15       70.58       70.00    
  32  -1000.0       101.1       101.0       100.8       100.5       100.2       99.71       99.18       98.57       97.90    
        97.17       96.37       95.50       94.57       93.58       92.52       91.51       90.53       89.59       88.70    
        87.82       86.99       86.19       85.42       84.67       83.95       83.24       82.55       81.88       81.21    
        80.56       79.91       79.27       78.64       78.01       77.38       76.77       76.17       75.61       75.11    
        74.63       74.17       73.70       73.22       72.73       72.22       71.69       71.14       70.58       70.00    
  33  -1000.0       101.5       101.4       101.2       100.9       100.6       100.1       99.62       99.04       98.39    
        97.67       96.89       96.04       95.12       94.14       93.08       92.07       91.09       90.14       89.23    
        88.34       87.48       86.66       85.87       85.10       84.35       83.62       82.91       82.21       81.53    
        80.86       80.19       79.54       78.89       78.25       77.61       76.99       76.39       75.82       75.29    
        74.78       74.28       73.78       73.28       72.77       72.24       71.70       71.15       70.58       70.00    
  34  -1000.0       101.8       101.7       101.5       101.3       100.9       100.5       100.0       99.46       98.83    
        98.13       97.36       96.53       95.62       94.64       93.59       92.57       91.59       90.64       89.72    
        88.81       87.94       87.10       86.29       85.50       84.73       83.98       83.25       82.54       81.83    
        81.15       80.47       79.80       79.14       78.49       77.85       77.22       76.61       76.03       75.47    
        74.93       74.40       73.88       73.35       72.82       72.28       71.72       71.16       70.58       70.00    
  35  -1000.0       102.1       102.0       101.8       101.6       101.3       100.9       100.4       99.85       99.23    
        98.55       97.79       96.96       96.07       95.09       94.05       93.03       92.05       91.09       90.16    
        89.24       88.36       87.50       86.67       85.87       85.08       84.32       83.57       82.84       82.13    
        81.42       80.73       80.05       79.38       78.72       78.07       77.44       76.82       76.22       75.64    
        75.08       74.53       73.98       73.43       72.88       72.32       71.75       71.17       70.59       70.00    
  36  -1000.0       102.4       102.3       102.1       101.9       101.6       101.2       100.7       100.2       99.60    
        98.92       98.18       97.36       96.47       95.50       94.46       93.45       92.46       91.50       90.57    
        89.64       88.74       87.88       87.03       86.22       85.42       84.64       83.88       83.13       82.40    
        81.69       80.99       80.29       79.61       78.94       78.29       77.65       77.02       76.41       75.81    
        75.23       74.65       74.08       73.51       72.94       72.36       71.78       71.19       70.60       70.00    
  37  -1000.0       102.6       102.5       102.4       102.2       101.9       101.5       101.0       100.5       99.93    
        99.26       98.53       97.72       96.83       95.87       94.83       93.82       92.83       91.87       90.93    
        90.00       89.09       88.22       87.36       86.53       85.72       84.93       84.16       83.41       82.67    
        81.94       81.22       80.52       79.83       79.16       78.49       77.84       77.20       76.58       75.96    
        75.36       74.77       74.18       73.59       73.00       72.41       71.82       71.21       70.61       70.00    
  38  -1000.0       102.9       102.8       102.6       102.4       102.1       101.8       101.3       100.8       100.2    
        99.57       98.84       98.04       97.16       96.20       95.17       94.16       93.17       92.20       91.26    
        90.32       89.41       88.53       87.67       86.83       86.01       85.21       84.42       83.66       82.91    
        82.17       81.45       80.74       80.04       79.35       78.68       78.02       77.37       76.73       76.11    
        75.49       74.88       74.27       73.67       73.07       72.46       71.85       71.24       70.62       70.00    
  39  -1000.0       103.1       103.0       102.9       102.6       102.4       102.0       101.6       101.1       100.5    
        99.84       99.12       98.32       97.45       96.50       95.47       94.46       93.47       92.50       91.56    
        90.61       89.70       88.81       87.94       87.09       86.27       85.46       84.67       83.89       83.13    
        82.39       81.65       80.94       80.23       79.54       78.85       78.18       77.52       76.88       76.24    
        75.61       74.98       74.36       73.74       73.13       72.51       71.88       71.26       70.63       70.00    
  40  -1000.0       103.3       103.2       103.1       102.9       102.6       102.2       101.8       101.3       100.7    
        100.1       99.36       98.57       97.71       96.76       95.73       94.72       93.74       92.77       91.82    
        90.87       89.96       89.06       88.19       87.33       86.50       85.68       84.88       84.10       83.34    
        82.58       81.84       81.12       80.40       79.70       79.01       78.33       77.66       77.01       76.36    
        75.71       75.08       74.44       73.81       73.18       72.55       71.92       71.28       70.64       70.00    
  41  -1000.0       103.4       103.4       103.2       103.0       102.7       102.4       102.0       101.5       100.9    
        100.3       99.58       98.80       97.93       96.99       95.96       94.96       93.97       93.00       92.06    
        91.11       90.18       89.28       88.41       87.55       86.71       85.89       85.08       84.29       83.52    
        82.76       82.01       81.28       80.56       79.85       79.15       78.47       77.79       77.12       76.46    
        75.81       75.16       74.52       73.88       73.23       72.59       71.95       71.30       70.65       70.00    
  42  -1000.0       103.7       103.5       103.4       103.2       102.9       102.6       102.1       101.7       101.1    
        100.5       99.76       98.99       98.13       97.19       96.17       95.16       94.18       93.21       92.26    
        91.31       90.39       89.48       88.60       87.74       86.89       86.07       85.26       84.46       83.68    
        82.92       82.17       81.43       80.70       79.98       79.28       78.59       77.90       77.23       76.56    
        75.90       75.24       74.58       73.93       73.28       72.63       71.98       71.32       70.66       70.00    
  43  -1000.0       103.8       103.7       103.5       103.3       103.0       102.7       102.3       101.8       101.2    
        100.6       99.92       99.15       98.29       97.36       96.34       95.34       94.36       93.39       92.44    
        91.49       90.56       89.65       88.77       87.90       87.05       86.22       85.41       84.61       83.83    
        83.05       82.30       81.55       80.82       80.10       79.39       78.69       78.00       77.32       76.64    
        75.97       75.30       74.64       73.98       73.32       72.66       72.00       71.34       70.67       70.00    
  44  -1000.0     -1000.0       103.9       103.7       103.4       103.1       102.8       102.4       101.9       101.3    
        100.7       100.0       99.28       98.43       97.50       96.49       95.49       94.51       93.54       92.59    
        91.64       90.71       89.80       88.91       88.04       87.19       86.36       85.54       84.74       83.95    
        83.17       82.41       81.66       80.93       80.20       79.48       78.78       78.08       77.39       76.71    
        76.03       75.36       74.69       74.03       73.36       72.69       72.02       71.35       70.68       70.00    
  45  -1000.0     -1000.0     -1000.0       103.8       103.5       103.2       102.8       102.4       102.0       101.4    
        100.8       100.1       99.38       98.54       97.62       96.61       95.61       94.63       93.66       92.71    
        91.76       90.83       89.92       89.03       88.16       87.31       86.47       85.65       84.84       84.05    
        83.27       82.51       81.75       81.01       80.28       79.56       78.85       78.15       77.46       76.77    
        76.09       75.41       74.73       74.06       73.39       72.71       72.04       71.36       70.68       70.00    
  46  -1000.0     -1000.0     -1000.0     -1000.0       103.6       103.3       102.8       102.5       102.0       101.5    
        100.9       100.2       99.46       98.63       97.71       96.70       95.70       94.73       93.76       92.81    
        91.86       90.93       90.02       89.13       88.25       87.40       86.56       85.73       84.93       84.13    
        83.35       82.58       81.83       81.08       80.35       79.63       78.91       78.21       77.51       76.82    
        76.13       75.45       74.77       74.09       73.41       72.73       72.05       71.37       70.69       70.00    
  47  -1000.0     -1000.0     -1000.0     -1000.0     -1000.0       103.3       102.9       102.5       102.0       101.5    
        100.9       100.3       99.52       98.69       97.77       96.77       95.77       94.80       93.83       92.89    
        91.93       91.00       90.09       89.20       88.32       87.47       86.63       85.80       84.99       84.19    
        83.41       82.64       81.88       81.13       80.40       79.67       78.96       78.25       77.55       76.85    
        76.16       75.48       74.79       74.11       73.43       72.75       72.06       71.38       70.69       70.00    
  48  -1000.0     -1000.0     -1000.0     -1000.0     -1000.0     -1000.0       103.0       102.5       102.0       101.5    
        100.9       100.3       99.55       98.73       97.81       96.81       95.82       94.84       93.88       92.93    
        91.98       91.05       90.14       89.25       88.37       87.51       86.67       85.84       85.03       84.23    
        83.45       82.68       81.92       81.17       80.43       79.70       78.99       78.28       77.57       76.88    
        76.18       75.50       74.81       74.13       73.44       72.76       72.07       71.38       70.69       70.00    
  49  -1000.0     -1000.0     -1000.0     -1000.0     -1000.0     -1000.0     -1000.0       102.6       102.1       101.4    
        100.9       100.3       99.56       98.74       97.83       96.83       95.84       94.87       93.91       92.96    
        92.01       91.07       90.16       89.27       88.39       87.53       86.69       85.86       85.05       84.25    
        83.47       82.70       81.94       81.19       80.45       79.72       79.00       78.29       77.59       76.89    
        76.19       75.50       74.82       74.13       73.45       72.76       72.08       71.39       70.69       70.00    
  50  -1000.0     -1000.0     -1000.0     -1000.0     -1000.0     -1000.0     -1000.0     -1000.0     -1000.0     -1000.0    
      -1000.0     -1000.0     -1000.0     -1000.0     -1000.0     -1000.0     -1000.0     -1000.0     -1000.0     -1000.0    
      -1000.0     -1000.0     -1000.0     -1000.0     -1000.0     -1000.0     -1000.0     -1000.0     -1000.0     -1000.0    
      -1000.0     -1000.0     -1000.0     -1000.0     -1000.0     -1000.0     -1000.0     -1000.0     -1000.0     -1000.0    
      -1000.0     -1000.0     -1000.0     -1000.0     -1000.0     -1000.0     -1000.0     -1000.0     -1000.0       70.00    
1
              HEAD IN LAYER   3 AT END OF TIME STEP   1 IN STRESS PERIOD    1
  ---------------------------------------------------------------------------

            1           2           3           4           5           6           7           8           9          10
           11          12          13          14          15          16          17          18          19          20
           21          22          23          24          25          26          27          28          29          30
[...]
        84.42       84.13       83.78       83.36       82.90       82.39       81.84       81.26       80.65       80.01    
        79.35       78.66       77.93       77.18       76.37       75.51       74.56       73.52       72.48       72.48    
        72.48       72.38       72.21       71.97       71.70       71.39       71.06       70.72       70.36       70.00    
  24  -1000.0       99.65       99.20       98.55       97.78       96.96       96.09       95.19       94.27       93.34    
        92.38       91.42       90.44       89.45       88.44       87.40       86.42       85.49       84.63       83.87    
        83.97       83.90       83.67       83.32       82.88       82.39       81.85       81.27       80.66       80.02    
        79.36       78.66       77.94       77.18       76.39       75.57       74.73       73.89       73.19       72.85    
        72.64       72.44       72.22       71.97       71.69       71.38       71.06       70.71       70.36       70.00    
  25  -1000.0       100.3       99.47       98.54       97.58       96.61       95.63       94.65       93.66       92.67    
        91.67       90.68       89.68       88.68       87.68       86.66       85.66       84.67       83.69       82.78    
        83.69       83.84       83.68       83.36       82.94       82.45       81.91       81.32       80.71       80.07    
        79.39       78.69       77.97       77.22       76.44       75.65       74.87       74.13       73.51       73.08    
        72.77       72.50       72.25       71.98       71.69       71.38       71.06       70.71       70.36       70.00    
  26  -1000.0       99.93       99.49       98.83       98.08       97.26       96.40       95.51       94.60       93.67    
        92.73       91.76       90.79       89.79       88.77       87.71       86.70       85.74       84.84       84.07    
        84.17       84.10       83.87       83.51       83.07       82.56       82.01       81.42       80.80       80.15    
        79.47       78.76       78.03       77.27       76.50       75.71       74.95       74.23       73.63       73.18    
        72.83       72.54       72.27       71.99       71.70       71.39       71.06       70.72       70.36       70.00    
  27  -1000.0       99.88       99.60       99.13       98.53       97.84       97.09       96.29       95.45       94.58    
        93.68       92.75       91.79       90.80       89.78       88.71       87.70       86.75       85.87       85.09    
        84.82       84.54       84.18       83.76       83.27       82.74       82.17       81.56       80.92       80.26    
        79.57       78.85       78.11       77.35       76.56       75.76       74.96       74.22       73.59       73.15    
        72.83       72.55       72.29       72.01       71.72       71.40       71.07       70.72       70.36       70.00    
  28  -1000.0       100.0       99.81       99.44       98.96       98.37       97.71       96.98       96.21       95.39    
        94.53       93.63       92.69       91.72       90.69       89.62       88.61       87.66       86.78       85.97    
        85.49       85.04       84.58       84.07       83.54       82.96       82.36       81.73       81.08       80.40    
        79.70       78.97       78.22       77.44       76.63       75.78       74.92       74.07       73.34       72.98    
        72.76       72.54       72.30       72.04       71.74       71.43       71.09       70.73       70.37       70.00    
  29  -1000.0       100.2       100.1       99.78       99.37       98.86       98.27       97.61       96.89       96.12    
        95.30       94.43       93.51       92.54       91.53       90.46       89.44       88.49       87.59       86.75    
        86.14       85.57       85.01       84.43       83.84       83.23       82.59       81.94       81.27       80.58    
        79.86       79.12       78.36       77.56       76.72       75.83       74.85       73.77       72.71       72.68    
        72.65       72.53       72.34       72.08       71.78       71.46       71.11       70.75       70.38       70.00    
  30  -1000.0       100.5       100.4       100.1       99.77       99.32       98.79       98.18       97.51       96.77    
        95.98       95.14       94.24       93.29       92.28       91.22       90.20       89.24       88.32       87.46    
        86.76       86.09       85.45       84.81       84.17       83.52       82.85       82.17       81.48       80.77    
        80.05       79.30       78.53       77.72       76.87       75.94       74.86       73.45       71.02       72.34    
        72.64       72.60       72.41       72.15       71.84       71.51       71.15       70.77       70.39       70.00    
  31  -1000.0       100.8       100.7       100.5       100.2       99.76       99.27       98.70       98.07       97.37    
        96.60       95.78       94.90       93.96       92.96       91.90       90.89       89.91       88.99       88.11    
        87.33       86.60       85.89       85.20       84.51       83.82       83.13       82.43       81.71       80.99    
        80.26       79.50       78.73       77.92       77.08       76.18       75.21       74.12       73.04       72.99    
        72.94       72.79       72.55       72.26       71.93       71.57       71.19       70.80       70.40       70.00    
  32  -1000.0       101.1       101.0       100.8       100.5       100.2       99.71       99.18       98.57       97.90    
        97.17       96.37       95.50       94.57       93.58       92.52       91.51       90.53       89.59       88.70    
        87.87       87.08       86.32       85.58       84.86       84.13       83.41       82.69       81.96       81.22    
        80.48       79.72       78.95       78.16       77.35       76.50       75.64       74.77       74.02       73.62    
        73.33       73.04       72.73       72.39       72.03       71.64       71.25       70.84       70.42       70.00    
  33  -1000.0       101.5       101.4       101.2       100.9       100.6       100.1       99.62       99.04       98.39    
        97.67       96.89       96.04       95.12       94.14       93.08       92.07       91.09       90.14       89.23    
        88.37       87.54       86.74       85.96       85.20       84.45       83.70       82.96       82.21       81.47    
        80.72       79.96       79.19       78.42       77.63       76.84       76.05       75.30       74.63       74.12    
        73.70       73.32       72.94       72.54       72.14       71.73       71.31       70.87       70.44       70.00    
  34  -1000.0       101.8       101.7       101.5       101.3       100.9       100.5       100.0       99.46       98.83    
        98.13       97.36       96.53       95.62       94.64       93.59       92.57       91.59       90.64       89.72    
        88.82       87.96       87.13       86.32       85.53       84.75       83.99       83.23       82.47       81.71    
        80.96       80.20       79.44       78.68       77.92       77.16       76.42       75.72       75.08       74.52    
        74.03       73.58       73.14       72.70       72.26       71.82       71.37       70.92       70.46       70.00    
  35  -1000.0       102.1       102.0       101.8       101.6       101.3       100.9       100.4       99.85       99.23    
        98.55       97.79       96.96       96.07       95.09       94.05       93.03       92.05       91.09       90.16    
        89.24       88.35       87.50       86.66       85.85       85.05       84.27       83.49       82.72       81.96    
        81.20       80.44       79.69       78.93       78.19       77.46       76.75       76.07       75.43       74.85    
        74.32       73.81       73.33       72.85       72.38       71.91       71.43       70.96       70.48       70.00    
  36  -1000.0       102.4       102.3       102.1       101.9       101.6       101.2       100.7       100.2       99.60    
        98.92       98.18       97.36       96.47       95.50       94.46       93.45       92.46       91.50       90.57    
        89.62       88.72       87.84       86.99       86.15       85.34       84.54       83.75       82.97       82.20    
        81.43       80.68       79.92       79.18       78.45       77.73       77.03       76.36       75.72       75.13    
        74.56       74.02       73.50       73.00       72.49       71.99       71.50       71.00       70.50       70.00    
  37  -1000.0       102.6       102.5       102.4       102.2       101.9       101.5       101.0       100.5       99.93    
        99.26       98.53       97.72       96.83       95.87       94.83       93.82       92.83       91.87       90.93    
        89.98       89.05       88.16       87.29       86.44       85.61       84.79       83.99       83.21       82.43    
        81.66       80.90       80.15       79.41       78.68       77.97       77.28       76.61       75.97       75.36    
        74.78       74.21       73.66       73.13       72.60       72.08       71.56       71.04       70.52       70.00    
  38  -1000.0       102.9       102.8       102.6       102.4       102.1       101.8       101.3       100.8       100.2    
        99.57       98.84       98.04       97.16       96.20       95.17       94.16       93.17       92.20       91.26    
        90.29       89.36       88.45       87.57       86.70       85.86       85.04       84.23       83.43       82.65    
        81.88       81.11       80.36       79.63       78.90       78.19       77.50       76.83       76.19       75.56    
        74.96       74.38       73.81       73.25       72.70       72.15       71.61       71.07       70.54       70.00    
  39  -1000.0       103.1       103.0       102.9       102.6       102.4       102.0       101.6       101.1       100.5    
        99.84       99.12       98.32       97.45       96.50       95.47       94.46       93.47       92.50       91.56    
        90.58       89.64       88.72       87.82       86.95       86.10       85.26       84.44       83.64       82.85    
        82.08       81.31       80.56       79.82       79.10       78.39       77.70       77.03       76.37       75.74    
        75.12       74.52       73.93       73.35       72.79       72.22       71.66       71.11       70.55       70.00    
  40  -1000.0       103.3       103.2       103.1       102.9       102.6       102.2       101.8       101.3       100.7    
        100.1       99.36       98.57       97.71       96.76       95.73       94.72       93.74       92.77       91.82    
        90.84       89.89       88.96       88.05       87.17       86.31       85.47       84.65       83.84       83.04    
        82.26       81.49       80.74       80.00       79.28       78.57       77.87       77.19       76.53       75.89    
        75.26       74.65       74.04       73.45       72.86       72.29       71.71       71.14       70.57       70.00    
  41  -1000.0       103.4       103.4       103.2       103.0       102.7       102.4       102.0       101.5       100.9    
        100.3       99.58       98.79       97.93       96.99       95.96       94.96       93.97       93.00       92.06    
        91.07       90.11       89.17       88.26       87.38       86.51       85.66       84.83       84.01       83.21    
        82.43       81.66       80.90       80.16       79.43       78.72       78.02       77.34       76.67       76.02    
        75.38       74.76       74.14       73.53       72.93       72.34       71.75       71.17       70.58       70.00    
  42  -1000.0     -1000.0       103.5       103.4       103.2       102.9       102.6       102.1       101.7       101.1    
        100.5       99.76       98.99       98.13       97.19       96.17       95.16       94.18       93.21       92.26    
        91.27       90.31       89.37       88.45       87.55       86.68       85.83       84.99       84.17       83.37    
        82.58       81.81       81.05       80.30       79.57       78.86       78.16       77.47       76.80       76.14    
        75.49       74.85       74.22       73.61       73.00       72.39       71.79       71.19       70.59       70.00    
  43  -1000.0     -1000.0     -1000.0       103.5       103.3       103.0       102.7       102.3       101.8       101.2    
        100.6       99.92       99.15       98.29       97.36       96.34       95.34       94.36       93.39       92.44    
        91.44       90.48       89.53       88.61       87.71       86.83       85.97       85.13       84.31       83.50    
        82.71       81.94       81.17       80.43       79.69       78.98       78.27       77.58       76.90       76.23    
        75.58       74.93       74.30       73.67       73.05       72.43       71.82       71.21       70.61       70.00    
  44  -1000.0     -1000.0     -1000.0     -1000.0       103.4       103.1       102.8       102.4       101.9       101.3    
        100.7       100.0       99.28       98.43       97.50       96.49       95.49       94.51       93.54       92.59    
        91.59       90.62       89.67       88.75       87.85       86.96       86.10       85.26       84.43       83.62    
        82.83       82.05       81.28       80.53       79.80       79.08       78.37       77.67       76.99       76.31    
        75.65       75.00       74.36       73.72       73.09       72.47       71.85       71.23       70.61       70.00    
  45  -1000.0     -1000.0     -1000.0     -1000.0     -1000.0       103.2       102.8       102.4       102.0       101.4    
        100.8       100.1       99.38       98.54       97.62       96.61       95.61       94.63       93.66       92.71    
        91.72       90.74       89.79       88.86       87.96       87.07       86.21       85.36       84.53       83.72    
        82.92       82.14       81.37       80.62       79.88       79.16       78.45       77.75       77.06       76.38    
        75.71       75.06       74.41       73.76       73.13       72.50       71.87       71.24       70.62       70.00    
  46  -1000.0     -1000.0     -1000.0     -1000.0     -1000.0     -1000.0       102.8       102.5       102.0       101.5    
        100.9       100.2       99.46       98.63       97.71       96.70       95.70       94.73       93.76       92.81    
        91.81       90.84       89.89       88.96       88.05       87.16       86.29       85.44       84.61       83.80    
        83.00       82.21       81.45       80.69       79.95       79.22       78.51       77.81       77.11       76.43    
        75.76       75.10       74.45       73.80       73.16       72.52       71.89       71.26       70.63       70.00    
  47  -1000.0     -1000.0     -1000.0     -1000.0     -1000.0     -1000.0     -1000.0       102.5       102.0       101.5    
        100.9       100.3       99.52       98.69       97.77       96.77       95.77       94.80       93.83       92.89    
        91.89       90.91       89.96       89.03       88.12       87.23       86.36       85.51       84.67       83.86    
        83.05       82.27       81.50       80.74       80.00       79.27       78.56       77.85       77.16       76.47    
        75.80       75.13       74.47       73.82       73.18       72.54       71.90       71.26       70.63       70.00    
  48  -1000.0     -1000.0     -1000.0     -1000.0     -1000.0     -1000.0     -1000.0     -1000.0       102.0       101.5    
        100.9       100.3       99.55       98.73       97.81       96.81       95.82       94.84       93.88       92.93    
        91.93       90.96       90.00       89.07       88.16       87.27       86.40       85.55       84.71       83.89    
        83.09       82.31       81.54       80.78       80.04       79.30       78.59       77.88       77.18       76.50    
        75.82       75.15       74.49       73.84       73.19       72.55       71.91       71.27       70.63       70.00    
  49  -1000.0     -1000.0     -1000.0     -1000.0     -1000.0     -1000.0     -1000.0     -1000.0     -1000.0       101.4    
        100.9       100.3       99.56       98.74       97.83       96.83       95.84       94.87       93.91       92.96    
        91.96       90.98       90.03       89.09       88.18       87.29       86.42       85.57       84.73       83.91    
        83.11       82.33       81.55       80.80       80.05       79.32       78.60       77.89       77.20       76.51    
        75.83       75.17       74.50       73.85       73.20       72.55       71.91       71.27       70.64       70.00    
  50  -1000.0     -1000.0     -1000.0     -1000.0     -1000.0     -1000.0     -1000.0     -1000.0     -1000.0     -1000.0    
      -1000.0     -1000.0     -1000.0     -1000.0     -1000.0     -1000.0     -1000.0     -1000.0     -1000.0     -1000.0    
      -1000.0     -1000.0     -1000.0     -1000.0     -1000.0     -1000.0     -1000.0     -1000.0     -1000.0     -1000.0    
      -1000.0     -1000.0     -1000.0     -1000.0     -1000.0     -1000.0     -1000.0     -1000.0     -1000.0     -1000.0    
      -1000.0     -1000.0     -1000.0     -1000.0     -1000.0     -1000.0     -1000.0     -1000.0     -1000.0       70.00    

 HEAD WILL BE SAVED ON UNIT   51 AT END OF TIME STEP    1, STRESS PERIOD    1

 DRAWDOWN WILL BE SAVED ON UNIT   52 AT END OF TIME STEP    1, STRESS PERIOD    1
1
  VOLUMETRIC BUDGET FOR ENTIRE MODEL AT END OF TIME STEP    1, STRESS PERIOD   1
  ------------------------------------------------------------------------------

     CUMULATIVE VOLUMES      L**3       RATES FOR THIS TIME STEP      L**3/T
     ------------------                 ------------------------

           IN:                                      IN:
           ---                                      ---
             STORAGE =           0.0000               STORAGE =           0.0000
       CONSTANT HEAD =           0.0000         CONSTANT HEAD =           0.0000
               WELLS =         375.0000                 WELLS =         375.0000
       RIVER LEAKAGE =        3799.8108         RIVER LEAKAGE =        3799.8108
                  ET =           0.0000                    ET =           0.0000
            RECHARGE =       33199.9961              RECHARGE =       33199.9961

            TOTAL IN =       37374.8047              TOTAL IN =       37374.8047

          OUT:                                     OUT:
          ----                                     ----
             STORAGE =           0.0000               STORAGE =           0.0000
       CONSTANT HEAD =       11407.5273         CONSTANT HEAD =       11407.5273
               WELLS =        7500.0000                 WELLS =        7500.0000
       RIVER LEAKAGE =       17921.6172         RIVER LEAKAGE =       17921.6172
                  ET =         545.6450                    ET =         545.6450
            RECHARGE =           0.0000              RECHARGE =           0.0000

           TOTAL OUT =       37374.7891             TOTAL OUT =       37374.7891

            IN - OUT =       1.5625E-02              IN - OUT =       1.5625E-02

 PERCENT DISCREPANCY =           0.00     PERCENT DISCREPANCY =           0.00






         TIME SUMMARY AT END OF TIME STEP    1 IN STRESS PERIOD    1
                    SECONDS     MINUTES      HOURS       DAYS        YEARS
                    -----------------------------------------------------------
   TIME STEP LENGTH  86400.      1440.0      24.000      1.0000     2.73785E-03
 STRESS PERIOD TIME  86400.      1440.0      24.000      1.0000     2.73785E-03
         TOTAL TIME  86400.      1440.0      24.000      1.0000     2.73785E-03
1

 Run end date and time (yyyy/mm/dd hh:mm:ss): 2026/02/25  7:15:13
 Elapsed run time: 12.728 Seconds

