                                  MODFLOW-2005     
      U.S. GEOLOGICAL SURVEY MODULAR FINITE-DIFFERENCE GROUND-WATER FLOW MODEL
                            VERSION 1.12.00 2/3/2017

 LIST FILE: static_ensemble_S2wel_3311113.list
                         UNIT    2

 OPENING static_ensemble_S2wel_3311113.dis
 FILE TYPE:DIS   UNIT   11   STATUS:OLD    
 FORMAT:FORMATTED              ACCESS:SEQUENTIAL          

 OPENING static_ensemble_S2wel_3311113.bas
 FILE TYPE:BAS6   UNIT   13   STATUS:OLD    
 FORMAT:FORMATTED              ACCESS:SEQUENTIAL          

 OPENING static_ensemble_S2wel_3311113.lpf
 FILE TYPE:LPF   UNIT   15   STATUS:OLD    
 FORMAT:FORMATTED              ACCESS:SEQUENTIAL          

 OPENING static_ensemble_S2wel_3311113.evt
 FILE TYPE:EVT   UNIT   22   STATUS:OLD    
 FORMAT:FORMATTED              ACCESS:SEQUENTIAL          

 OPENING static_ensemble_S2wel_3311113.rch
 FILE TYPE:RCH   UNIT   19   STATUS:OLD    
 FORMAT:FORMATTED              ACCESS:SEQUENTIAL          

 OPENING static_ensemble_S2wel_3311113.riv
 FILE TYPE:RIV   UNIT   18   STATUS:OLD    
 FORMAT:FORMATTED              ACCESS:SEQUENTIAL          

 OPENING static_ensemble_S2wel_3311113.wel
 FILE TYPE:WEL   UNIT   20   STATUS:OLD    
 FORMAT:FORMATTED              ACCESS:SEQUENTIAL          

 OPENING static_ensemble_S2wel_3311113.oc
 FILE TYPE:OC   UNIT   14   STATUS:OLD    
 FORMAT:FORMATTED              ACCESS:SEQUENTIAL          

 OPENING static_ensemble_S2wel_3311113.pcg
 FILE TYPE:PCG   UNIT   27   STATUS:OLD    
 FORMAT:FORMATTED              ACCESS:SEQUENTIAL          

 OPENING static_ensemble_S2wel_3311113.cbc
 FILE TYPE:DATA(BINARY)   UNIT   53   STATUS:REPLACE
 FORMAT:UNFORMATTED            ACCESS:STREAM              

 OPENING static_ensemble_S2wel_3311113.hds
 FILE TYPE:DATA(BINARY)   UNIT   51   STATUS:REPLACE
 FORMAT:UNFORMATTED            ACCESS:STREAM              

 OPENING static_ensemble_S2wel_3311113.ddn
 FILE TYPE:DATA(BINARY)   UNIT   52   STATUS:REPLACE
 FORMAT:UNFORMATTED            ACCESS:STREAM              

 BAS -- BASIC PACKAGE, VERSION 7, 5/2/2005 INPUT READ FROM UNIT   13
 
 MODFLOW was compiled using mixed precision
 Precision of REAL variables:           6
 Precision of DOUBLE PRECISION variables:          15

 DISCRETIZATION INPUT DATA READ FROM UNIT   11
 # DIS package for MODFLOW-2005 generated by Flopy 3.10.0
    3 LAYERS        50 ROWS        50 COLUMNS
    1 STRESS PERIOD(S) IN SIMULATION
 MODEL TIME UNIT IS DAYS
 MODEL LENGTH UNIT IS METERS
  Confining bed flag for each layer:
   0   0   0

                     DELR =   1000.00    

                     DELC =   1000.00    



           TOP ELEVATION OF LAYER 1
 READING ON UNIT   11 WITH FORMAT: (50E15.6)           



             MODEL LAYER BOTTOM EL. FOR LAYER   1
 READING ON UNIT   11 WITH FORMAT: (50E15.6)           



             MODEL LAYER BOTTOM EL. FOR LAYER   2
 READING ON UNIT   11 WITH FORMAT: (50E15.6)           



             MODEL LAYER BOTTOM EL. FOR LAYER   3
 READING ON UNIT   11 WITH FORMAT: (50E15.6)           


 STRESS PERIOD     LENGTH       TIME STEPS     MULTIPLIER FOR DELT    SS FLAG
 ----------------------------------------------------------------------------
        1         1.000000          1                    1.000         SS

 STEADY-STATE SIMULATION



 
 # BAS6 package for MODFLOW-2005 generated by Flopy 3.10.0                       
 THE FREE FORMAT OPTION HAS BEEN SELECTED



                     BOUNDARY ARRAY FOR LAYER   1
 READING ON UNIT   13 WITH FORMAT: (50I10)             



                     BOUNDARY ARRAY FOR LAYER   2
 READING ON UNIT   13 WITH FORMAT: (50I10)             



                     BOUNDARY ARRAY FOR LAYER   3
 READING ON UNIT   13 WITH FORMAT: (50I10)             

 AQUIFER HEAD WILL BE SET TO  -999.99     AT ALL NO-FLOW NODES (IBOUND=0).



                       INITIAL HEAD FOR LAYER   1
 READING ON UNIT   13 WITH FORMAT: (50E15.6)           



                       INITIAL HEAD FOR LAYER   2
 READING ON UNIT   13 WITH FORMAT: (50E15.6)           



                       INITIAL HEAD FOR LAYER   3
 READING ON UNIT   13 WITH FORMAT: (50E15.6)           
 # OC package for MODFLOW-2005 generated by Flopy 3.10.0

 OUTPUT CONTROL IS SPECIFIED ONLY AT TIME STEPS FOR WHICH OUTPUT IS DESIRED
 COMPACT CELL-BY-CELL BUDGET FILES WILL BE WRITTEN
 AUXILIARY DATA WILL BE SAVED IN CELL-BY-CELL BUDGET FILES
 HEAD PRINT FORMAT CODE IS   0    DRAWDOWN PRINT FORMAT CODE IS   0
 HEADS WILL BE SAVED ON UNIT   51    DRAWDOWNS WILL BE SAVED ON UNIT   52

 LPF -- LAYER-PROPERTY FLOW PACKAGE, VERSION 7, 5/2/2005
         INPUT READ FROM UNIT   15
 # LPF package for MODFLOW-2005 generated by Flopy 3.10.0
 CELL-BY-CELL FLOWS WILL BE SAVED ON UNIT   53
 HEAD AT CELLS THAT CONVERT TO DRY= -1.00000E+30
 No named parameters
 STORAGECOEFFICIENT OPTION:
 Read storage coefficient rather than specific storage

   LAYER FLAGS:
 LAYER       LAYTYP        LAYAVG         CHANI        LAYVKA        LAYWET
 ---------------------------------------------------------------------------
    1             1             0     1.000E+00             0             0
    2             1             0     1.000E+00             0             0
    3             1             0     1.000E+00             0             0

   INTERPRETATION OF LAYER FLAGS:
                        INTERBLOCK     HORIZONTAL    DATA IN
         LAYER TYPE   TRANSMISSIVITY   ANISOTROPY   ARRAY VKA   WETTABILITY
 LAYER      (LAYTYP)      (LAYAVG)       (CHANI)      (LAYVKA)      (LAYWET)
 ---------------------------------------------------------------------------
    1   CONVERTIBLE      HARMONIC     1.000E+00    VERTICAL K  NON-WETTABLE
    2   CONVERTIBLE      HARMONIC     1.000E+00    VERTICAL K  NON-WETTABLE
    3   CONVERTIBLE      HARMONIC     1.000E+00    VERTICAL K  NON-WETTABLE

 WETTING CAPABILITY IS NOT ACTIVE IN ANY LAYER



              HYD. COND. ALONG ROWS FOR LAYER   1
 READING ON UNIT   15 WITH FORMAT: (50E15.6)           



                VERTICAL HYD. COND. FOR LAYER   1
 READING ON UNIT   15 WITH FORMAT: (50E15.6)           



              HYD. COND. ALONG ROWS FOR LAYER   2
 READING ON UNIT   15 WITH FORMAT: (50E15.6)           



                VERTICAL HYD. COND. FOR LAYER   2
 READING ON UNIT   15 WITH FORMAT: (50E15.6)           



              HYD. COND. ALONG ROWS FOR LAYER   3
 READING ON UNIT   15 WITH FORMAT: (50E15.6)           



                VERTICAL HYD. COND. FOR LAYER   3
 READING ON UNIT   15 WITH FORMAT: (50E15.6)           

 WEL -- WELL PACKAGE, VERSION 7, 5/2/2005 INPUT READ FROM UNIT   20
 # WEL package for MODFLOW-2005 generated by Flopy 3.10.0
 No named parameters
 MAXIMUM OF      4 ACTIVE WELLS AT ONE TIME


     0 Well parameters

 RIV -- RIVER PACKAGE, VERSION 7, 5/2/2005 INPUT READ FROM UNIT   18
 # RIV package for MODFLOW-2005 generated by Flopy 3.10.0
 No named parameters
 MAXIMUM OF     49 ACTIVE RIVER REACHES AT ONE TIME
 CELL-BY-CELL FLOWS WILL BE SAVED ON UNIT   53


     0 River parameters

 EVT -- EVAPOTRANSPIRATION PACKAGE, VERSION 7, 5/2/2005
         INPUT READ FROM UNIT   22
 # EVT package for MODFLOW-2005 generated by Flopy 3.10.0
 No named parameters
 OPTION 3 -- EVAPOTRANSPIRATION FROM HIGHEST ACTIVE NODE IN EACH VERTICAL COLUMN
 CELL-BY-CELL FLOWS WILL BE SAVED ON UNIT   53


     0 Evapotranspiration parameters

 RCH -- RECHARGE PACKAGE, VERSION 7, 5/2/2005 INPUT READ FROM UNIT   19
 # RCH package for MODFLOW-2005 generated by Flopy 3.10.0
 No named parameters
 OPTION 3 -- RECHARGE TO HIGHEST ACTIVE NODE IN EACH VERTICAL COLUMN
 CELL-BY-CELL FLOWS WILL BE SAVED ON UNIT   53


     0 Recharge parameters

 PCG -- CONJUGATE-GRADIENT SOLUTION PACKAGE, VERSION 7, 5/2/2005
 # PCG package for MODFLOW-2005 generated by Flopy 3.10.0
 MAXIMUM OF   5000 CALLS OF SOLUTION ROUTINE
 MAXIMUM OF    500 INTERNAL ITERATIONS PER CALL TO SOLUTION ROUTINE
 MATRIX PRECONDITIONING TYPE :    1



                                    SOLUTION BY THE CONJUGATE-GRADIENT METHOD
                                   -------------------------------------------
                    MAXIMUM NUMBER OF CALLS TO PCG ROUTINE =     5000
                        MAXIMUM ITERATIONS PER CALL TO PCG =      500
                               MATRIX PRECONDITIONING TYPE =        1
        RELAXATION FACTOR (ONLY USED WITH PRECOND. TYPE 1) =    0.97000E+00
 PARAMETER OF POLYNOMIAL PRECOND. = 2 (2) OR IS CALCULATED :        0
                         HEAD CHANGE CRITERION FOR CLOSURE =    0.10000E-04
                     RESIDUAL CHANGE CRITERION FOR CLOSURE =    0.10000E-04
            PCG HEAD AND RESIDUAL CHANGE PRINTOUT INTERVAL =      999
     PRINTING FROM SOLVER IS LIMITED(1) OR SUPPRESSED (>1) =        3
                            STEADY-STATE DAMPING PARAMETER =    0.10000E-01
                               TRANSIENT DAMPING PARAMETER =    0.10000E-01
1
                            STRESS PERIOD NO.    1, LENGTH =   1.000000    
                            -----------------------------------------------

                              NUMBER OF TIME STEPS =     1

                               MULTIPLIER FOR DELT =     1.000

                            INITIAL TIME STEP SIZE =   1.000000    

 WELL NO.  LAYER   ROW   COL   STRESS RATE         
 --------------------------------------------------
      1      3     22     39      -1500.    
      2      1     13     15      -4500.    
      3      1     25     26       375.0    
      4      3     30     39      -1500.    

      4 WELLS

 REACH NO.  LAYER   ROW   COL     STAGE      CONDUCTANCE     BOTTOM EL.         
 -------------------------------------------------------------------------------
      1      1     25      2       100.5          0.1000E+06       98.00    
      2      1     25      3       99.50          0.1000E+06       97.00    
      3      1     25      4       98.50          0.1000E+06       96.00    
      4      1     25      5       97.50          0.1000E+06       95.00    
      5      1     25      6       96.50          0.1000E+06       94.00    
      6      1     25      7       95.50          0.1000E+06       93.00    
      7      1     25      8       94.50          0.1000E+06       92.00    
      8      1     25      9       93.50          0.1000E+06       91.00    
      9      1     25     10       92.50          0.1000E+06       90.00    
     10      1     25     11       91.50          0.1000E+06       89.00    
     11      1     25     12       90.50          0.1000E+06       88.00    
     12      1     25     13       89.50          0.1000E+06       87.00    
     13      1     25     14       88.50          0.1000E+06       86.00    
     14      1     25     15       87.50          0.1000E+06       85.00    
     15      1     25     16       86.50          0.1000E+06       84.00    
     16      1     25     17       85.50          0.1000E+06       83.00    
     17      1     25     18       84.50          0.1000E+06       82.00    
     18      1     25     19       83.50          0.1000E+06       81.00    
     19      1     25     20       82.50          0.1000E+06       80.00    
     20      1     25     21       81.50          0.1000E+06       79.00    
     21      1     25     22       80.50          0.1000E+06       78.00    
     22      1     25     23       79.50          0.1000E+06       77.00    
     23      1     25     24       78.50          0.1000E+06       76.00    
     24      1     25     25       77.50          0.1000E+06       75.00    
     25      1     25     26       77.40          0.1000E+06       74.90    
     26      1     25     27       77.30          0.1000E+06       74.80    
     27      1     25     28       77.20          0.1000E+06       74.70    
     28      1     25     29       77.10          0.1000E+06       74.60    
     29      1     25     30       77.00          0.1000E+06       74.50    
     30      1     25     31       76.90          0.1000E+06       74.40    
     31      1     25     32       76.80          0.1000E+06       74.30    
     32      1     25     33       76.70          0.1000E+06       74.20    
     33      1     25     34       76.60          0.1000E+06       74.10    
     34      1     25     35       76.50          0.1000E+06       74.00    
     35      1     25     36       76.40          0.1000E+06       73.90    
     36      1     25     37       76.30          0.1000E+06       73.80    
     37      1     25     38       76.20          0.1000E+06       73.70    
     38      1     25     39       76.10          0.1000E+06       73.60    
     39      1     25     40       76.00          0.1000E+06       73.50    
     40      1     25     41       75.90          0.1000E+06       73.40    
     41      1     25     42       75.80          0.1000E+06       73.30    
     42      1     25     43       75.70          0.1000E+06       73.20    
     43      1     25     44       75.60          0.1000E+06       73.10    
     44      1     25     45       75.50          0.1000E+06       73.00    
     45      1     25     46       75.40          0.1000E+06       72.90    
     46      1     25     47       75.30          0.1000E+06       72.80    
     47      1     25     48       75.20          0.1000E+06       72.70    
     48      1     25     49       75.10          0.1000E+06       72.60    
     49      1     25     50       75.00          0.1000E+06       72.50    

     49 RIVER REACHES



                         ET SURFACE
 READING ON UNIT   22 WITH FORMAT: (50E15.6)           



            EVAPOTRANSPIRATION RATE
 READING ON UNIT   22 WITH FORMAT: (50E15.6)           

         EXTINCTION DEPTH =   10.0000    



                           RECHARGE
 READING ON UNIT   19 WITH FORMAT: (50E15.6)           
 
 SOLVING FOR HEAD 

 OUTPUT CONTROL FOR STRESS PERIOD    1   TIME STEP    1
    SAVE HEAD FOR ALL LAYERS
    SAVE DRAWDOWN FOR ALL LAYERS
    SAVE BUDGET
    PRINT HEAD FOR ALL LAYERS
    PRINT BUDGET
 UBDSV2 SAVING "   CONSTANT HEAD" ON UNIT  53 AT TIME STEP  1, STRESS PERIOD   1
 UBDSV1 SAVING "FLOW RIGHT FACE " ON UNIT  53 AT TIME STEP  1, STRESS PERIOD   1
 UBDSV1 SAVING "FLOW FRONT FACE " ON UNIT  53 AT TIME STEP  1, STRESS PERIOD   1
 UBDSV1 SAVING "FLOW LOWER FACE " ON UNIT  53 AT TIME STEP  1, STRESS PERIOD   1
 UBDSV4 SAVING "   RIVER LEAKAGE" ON UNIT  53 AT TIME STEP  1, STRESS PERIOD   1
 UBDSV3 SAVING "              ET" ON UNIT  53 AT TIME STEP  1, STRESS PERIOD   1
 UBDSV3 SAVING "        RECHARGE" ON UNIT  53 AT TIME STEP  1, STRESS PERIOD   1
1
              HEAD IN LAYER   1 AT END OF TIME STEP   1 IN STRESS PERIOD    1
  ---------------------------------------------------------------------------

            1           2           3           4           5           6           7           8           9          10
           11          12          13          14          15          16          17          18          19          20
           21          22          23          24          25          26          27          28          29          30
           31          32          33          34          35          36          37          38          39          40
           41          42          43          44          45          46          47          48          49          50
 ........................................................................................................................
   1  -1000.0     -1000.0     -1000.0     -1000.0     -1000.0     -1000.0     -1000.0     -1000.0     -1000.0     -1000.0    
      -1000.0     -1000.0     -1000.0     -1000.0     -1000.0     -1000.0     -1000.0     -1000.0     -1000.0     -1000.0    
      -1000.0     -1000.0     -1000.0     -1000.0     -1000.0     -1000.0     -1000.0     -1000.0     -1000.0     -1000.0    
      -1000.0     -1000.0     -1000.0     -1000.0     -1000.0     -1000.0     -1000.0     -1000.0     -1000.0     -1000.0    
      -1000.0     -1000.0     -1000.0     -1000.0     -1000.0     -1000.0     -1000.0     -1000.0     -1000.0       70.00    
   2  -1000.0     -1000.0     -1000.0     -1000.0     -1000.0       86.41       86.30       86.13       85.93       85.69    
        85.50       85.27       85.01       84.73       84.42       84.10       83.76       83.41       83.05       82.68    
        82.30       81.92       81.53       81.14       80.74       80.34       79.94       79.53       79.13       78.72    
        78.31       77.90       77.49       77.08       76.66       76.24       75.82       75.40       74.97       74.54    
        74.11       73.67       73.23       72.78       72.32       71.87       71.41       70.94       70.47       70.00    
   3  -1000.0     -1000.0     -1000.0     -1000.0       86.65       86.51       86.36       86.17       85.96       85.76    
        85.54       85.30       85.03       84.74       84.43       84.11       83.77       83.42       83.06       82.68    
        82.31       81.92       81.53       81.14       80.74       80.34       79.94       79.53       79.13       78.72    
        78.31       77.90       77.49       77.08       76.66       76.24       75.82       75.40       74.97       74.54    
        74.11       73.67       73.23       72.78       72.33       71.87       71.41       70.94       70.47       70.00    
   4  -1000.0     -1000.0     -1000.0       86.94       86.79       86.63       86.45       86.25       86.05       85.84    
        85.61       85.35       85.08       84.78       84.46       84.13       83.79       83.43       83.07       82.70    
        82.32       81.93       81.54       81.14       80.74       80.34       79.94       79.53       79.13       78.72    
        78.31       77.90       77.49       77.08       76.66       76.25       75.83       75.40       74.98       74.55    
        74.11       73.67       73.23       72.78       72.33       71.87       71.41       70.94       70.47       70.00    
   5  -1000.0     -1000.0       87.23       87.09       86.93       86.76       86.57       86.38       86.17       85.94    
        85.69       85.42       85.14       84.83       84.51       84.17       83.82       83.46       83.09       82.71    
        82.33       81.94       81.54       81.15       80.75       80.34       79.94       79.53       79.12       78.72    
        78.31       77.90       77.49       77.08       76.66       76.25       75.83       75.41       74.98       74.55    
        74.12       73.68       73.24       72.79       72.33       71.88       71.41       70.95       70.48       70.00    
   6  -1000.0       87.49       87.37       87.24       87.09       86.91       86.72       86.52       86.29       86.05    
        85.79       85.51       85.21       84.90       84.56       84.22       83.86       83.49       83.12       82.74    
        82.35       81.95       81.55       81.15       80.75       80.34       79.94       79.53       79.12       78.71    
        78.31       77.90       77.49       77.08       76.66       76.25       75.83       75.41       74.99       74.56    
        74.12       73.69       73.24       72.80       72.34       71.88       71.42       70.95       70.48       70.00    
   7  -1000.0       87.60       87.53       87.41       87.27       87.09       86.89       86.67       86.44       86.18    
        85.91       85.62       85.30       84.97       84.63       84.28       83.91       83.53       83.15       82.76    
        82.37       81.97       81.56       81.16       80.75       80.34       79.93       79.52       79.12       78.71    
        78.30       77.89       77.48       77.07       76.66       76.25       75.83       75.42       74.99       74.57    
        74.13       73.70       73.25       72.81       72.35       71.89       71.43       70.95       70.48       70.00    
   8  -1000.0       87.78       87.72       87.61       87.46       87.28       87.07       86.85       86.60       86.33    
        86.04       85.74       85.41       85.07       84.71       84.34       83.97       83.58       83.19       82.79    
        82.39       81.98       81.57       81.16       80.75       80.34       79.93       79.52       79.11       78.70    
        78.29       77.89       77.48       77.07       76.66       76.25       75.84       75.42       75.00       74.58    
        74.15       73.71       73.27       72.82       72.36       71.90       71.43       70.96       70.48       70.00    
   9  -1000.0       88.00       87.95       87.82       87.67       87.49       87.28       87.04       86.79       86.50    
        86.20       85.87       85.53       85.17       84.79       84.41       84.03       83.63       83.23       82.83    
        82.41       82.00       81.58       81.17       80.75       80.33       79.92       79.51       79.10       78.69    
        78.28       77.88       77.47       77.07       76.66       76.25       75.84       75.43       75.01       74.59    
        74.16       73.73       73.29       72.84       72.38       71.92       71.45       70.97       70.49       70.00    
  10  -1000.0       88.26       88.18       88.06       87.90       87.72       87.50       87.26       86.99       86.69    
        86.37       86.02       85.66       85.28       84.89       84.49       84.09       83.69       83.28       82.86    
        82.44       82.02       81.59       81.17       80.75       80.33       79.91       79.49       79.08       78.68    
        78.27       77.87       77.46       77.06       76.66       76.26       75.85       75.44       75.03       74.61    
        74.18       73.75       73.31       72.86       72.40       71.93       71.46       70.98       70.49       70.00    
  11  -1000.0       88.50       88.43       88.32       88.17       87.98       87.76       87.50       87.22       86.90    
        86.56       86.19       85.80       85.39       84.98       84.57       84.17       83.75       83.33       82.90    
        82.47       82.03       81.60       81.17       80.74       80.31       79.89       79.48       79.06       78.66    
        78.25       77.85       77.45       77.06       76.66       76.26       75.86       75.45       75.04       74.63    
        74.21       73.78       73.34       72.89       72.43       71.96       71.48       70.99       70.50       70.00    
  12  -1000.0       88.79       88.73       88.62       88.47       88.28       88.04       87.77       87.47       87.14    
        86.77       86.38       85.96       85.52       85.06       84.65       84.24       83.82       83.38       82.94    
        82.49       82.05       81.60       81.16       80.72       80.29       79.87       79.45       79.04       78.63    
        78.23       77.83       77.44       77.05       76.66       76.26       75.87       75.47       75.07       74.65    
        74.24       73.81       73.37       72.92       72.46       71.99       71.50       71.01       70.51       70.00    
  13  -1000.0       89.14       89.08       88.97       88.81       88.61       88.36       88.07       87.75       87.40    
        87.01       86.59       86.14       85.65       85.07       84.74       84.33       83.89       83.44       82.98    
        82.52       82.05       81.60       81.15       80.70       80.26       79.83       79.42       79.00       78.60    
        78.20       77.81       77.42       77.04       76.65       76.27       75.88       75.49       75.09       74.69    
        74.27       73.85       73.41       72.96       72.50       72.02       71.53       71.03       70.52       70.00    
  14  -1000.0       89.54       89.48       89.36       89.20       88.98       88.71       88.41       88.06       87.68    
        87.27       86.83       86.36       85.87       85.36       84.91       84.45       83.98       83.50       83.02    
        82.54       82.06       81.59       81.12       80.67       80.22       79.79       79.37       78.96       78.56    
        78.17       77.78       77.40       77.02       76.65       76.27       75.89       75.51       75.12       74.73    
        74.32       73.90       73.47       73.02       72.55       72.07       71.57       71.06       70.53       70.00    
  15  -1000.0       89.99       89.93       89.81       89.62       89.39       89.10       88.77       88.41       88.00    
        87.56       87.10       86.61       86.10       85.58       85.08       84.58       84.07       83.56       83.05    
        82.55       82.05       81.56       81.08       80.62       80.17       79.73       79.31       78.90       78.51    
        78.12       77.75       77.37       77.01       76.64       76.28       75.91       75.54       75.16       74.77    
        74.37       73.96       73.53       73.08       72.62       72.13       71.62       71.09       70.55       70.00    
  16  -1000.0       90.51       90.44       90.30       90.10       89.85       89.54       89.18       88.78       88.34    
        87.87       87.38       86.86       86.33       85.79       85.24       84.70       84.16       83.62       83.08    
        82.55       82.03       81.53       81.03       80.56       80.10       79.66       79.24       78.84       78.45    
        78.07       77.70       77.34       76.99       76.63       76.28       75.93       75.57       75.20       74.83    
        74.44       74.04       73.61       73.17       72.70       72.20       71.68       71.14       70.58       70.00    
  17  -1000.0       91.09       91.01       90.86       90.64       90.35       90.01       89.62       89.19       88.71    
        88.21       87.68       87.13       86.56       85.99       85.41       84.83       84.25       83.67       83.11    
        82.55       82.00       81.47       80.96       80.47       80.01       79.57       79.15       78.75       78.37    
        78.00       77.65       77.30       76.96       76.62       76.29       75.95       75.61       75.26       74.89    
        74.52       74.13       73.71       73.27       72.80       72.30       71.77       71.20       70.61       70.00    
  18  -1000.0       91.74       91.65       91.48       91.23       90.91       90.53       90.10       89.62       89.11    
        88.56       87.99       87.40       86.80       86.18       85.57       84.95       84.33       83.72       83.11    
        82.52       81.94       81.39       80.86       80.36       79.89       79.45       79.03       78.64       78.27    
        77.92       77.58       77.25       76.93       76.61       76.29       75.97       75.65       75.32       74.97    
        74.62       74.24       73.84       73.40       72.94       72.43       71.88       71.28       70.65       70.00    
  19  -1000.0       92.47       92.37       92.17       91.88       91.52       91.10       90.62       90.09       89.53    
        88.94       88.32       87.69       87.04       86.38       85.72       85.06       84.40       83.75       83.10    
        82.47       81.87       81.28       80.73       80.22       79.74       79.30       78.89       78.52       78.16    
        77.83       77.51       77.20       76.90       76.60       76.30       76.00       75.70       75.38       75.06    
        74.73       74.37       73.99       73.57       73.11       72.59       72.02       71.40       70.72       70.00    
  20  -1000.0       93.30       93.17       92.94       92.61       92.19       91.71       91.17       90.59       89.98    
        89.33       88.66       87.98       87.28       86.58       85.87       85.16       84.46       83.76       83.08    
        82.40       81.76       81.14       80.56       80.03       79.55       79.12       78.72       78.36       78.03    
        77.72       77.42       77.14       76.86       76.58       76.31       76.03       75.75       75.46       75.17    
        74.86       74.53       74.17       73.77       73.32       72.81       72.22       71.56       70.81       70.00    
  21  -1000.0       94.24       94.08       93.80       93.40       92.92       92.37       91.77       91.12       90.44    
        89.74       89.01       88.28       87.53       86.77       86.01       85.25       84.50       83.76       83.03    
        82.30       81.61       80.95       80.34       79.80       79.31       78.89       78.51       78.18       77.87    
        77.59       77.32       77.06       76.81       76.57       76.32       76.07       75.81       75.54       75.29    
        75.02       74.72       74.40       74.03       73.60       73.10       72.50       71.79       70.94       70.00    
  22  -1000.0       95.31       95.12       94.76       94.28       93.71       93.07       92.39       91.67       90.92    
        90.15       89.37       88.57       87.77       86.96       86.14       85.33       84.53       83.73       82.94    
        82.16       81.42       80.71       80.06       79.49       79.01       78.61       78.26       77.96       77.69    
        77.44       77.21       76.98       76.77       76.55       76.33       76.11       75.87       75.60       75.42    
        75.20       74.94       74.66       74.33       73.94       73.48       72.89       72.14       71.17       70.00    
  23  -1000.0       96.58       96.30       95.82       95.22       94.55       93.81       93.04       92.24       91.42    
        90.58       89.73       88.87       88.01       87.14       86.27       85.40       84.54       83.68       82.83    
        81.99       81.18       80.40       79.69       79.09       78.62       78.26       77.97       77.72       77.49    
        77.28       77.09       76.90       76.72       76.53       76.35       76.17       75.97       75.78       75.60    
        75.40       75.19       74.96       74.69       74.37       73.97       73.44       72.69       71.58       70.00    
  24  -1000.0       98.10       97.65       97.00       96.24       95.43       94.58       93.70       92.82       91.91    
        91.00       90.09       89.16       88.24       87.31       86.38       85.45       84.53       83.60       82.69    
        81.78       80.89       80.02       79.22       78.53       78.13       77.85       77.63       77.44       77.27    
        77.11       76.96       76.81       76.66       76.52       76.37       76.23       76.08       75.93       75.78    
        75.63       75.47       75.29       75.09       74.87       74.58       74.19       73.58       72.44       70.00    
  25  -1000.0       100.0       99.19       98.25       97.30       96.33       95.35       94.38       93.39       92.41    
        91.42       90.44       89.45       88.46       87.47       86.48       85.49       84.51       83.52       82.53    
        81.54       80.55       79.57       78.60       77.69       77.50       77.37       77.26       77.15       77.04    
        76.93       76.82       76.71       76.61       76.50       76.40       76.29       76.18       76.08       75.97    
        75.86       75.76       75.65       75.53       75.42       75.29       75.15       74.97       74.51       70.00    
  26  -1000.0       98.10       97.65       97.00       96.24       95.43       94.58       93.71       92.82       91.92    
        91.01       90.09       89.17       88.24       87.32       86.39       85.46       84.53       83.61       82.69    
        81.78       80.89       80.03       79.22       78.54       78.13       77.85       77.63       77.44       77.27    
        77.11       76.96       76.81       76.66       76.52       76.38       76.23       76.08       75.94       75.79    
        75.63       75.47       75.29       75.09       74.86       74.58       74.19       73.58       72.44       70.00    
  27  -1000.0       96.58       96.30       95.82       95.23       94.55       93.81       93.04       92.24       91.42    
        90.59       89.74       88.88       88.02       87.15       86.28       85.41       84.54       83.68       82.83    
        82.00       81.19       80.42       79.71       79.10       78.63       78.27       77.98       77.72       77.50    
        77.29       77.09       76.90       76.72       76.54       76.35       76.17       75.99       75.80       75.61    
        75.41       75.19       74.95       74.68       74.36       73.96       73.43       72.69       71.58       70.00    
  28  -1000.0       95.31       95.12       94.76       94.28       93.71       93.08       92.40       91.68       90.93    
        90.17       89.39       88.59       87.79       86.98       86.16       85.35       84.54       83.74       82.95    
        82.18       81.43       80.73       80.08       79.51       79.02       78.62       78.27       77.97       77.70    
        77.45       77.21       76.99       76.77       76.55       76.33       76.12       75.89       75.67       75.44    
        75.20       74.94       74.65       74.32       73.94       73.47       72.89       72.13       71.17       70.00    
  29  -1000.0       94.24       94.08       93.80       93.41       92.92       92.38       91.77       91.13       90.46    
        89.76       89.04       88.30       87.55       86.80       86.04       85.28       84.52       83.77       83.04    
        82.32       81.63       80.97       80.37       79.82       79.33       78.90       78.53       78.19       77.88    
        77.59       77.32       77.07       76.81       76.57       76.32       76.06       75.80       75.53       75.28    
        75.01       74.72       74.39       74.02       73.59       73.09       72.50       71.78       70.94       70.00    
  30  -1000.0       93.29       93.17       92.94       92.61       92.20       91.72       91.19       90.61       90.00    
        89.36       88.69       88.01       87.32       86.61       85.90       85.19       84.49       83.79       83.10    
        82.43       81.78       81.16       80.59       80.05       79.57       79.13       78.73       78.37       78.04    
        77.72       77.42       77.14       76.86       76.58       76.30       76.02       75.72       75.38       75.14    
        74.85       74.52       74.16       73.77       73.32       72.81       72.22       71.55       70.80       70.00    
  31  -1000.0       92.47       92.37       92.17       91.89       91.53       91.11       90.63       90.11       89.56    
        88.97       88.36       87.73       87.09       86.43       85.77       85.10       84.44       83.78       83.14    
        82.51       81.90       81.31       80.76       80.24       79.76       79.32       78.91       78.53       78.17    
        77.83       77.51       77.20       76.90       76.59       76.29       75.98       75.67       75.35       75.04    
        74.71       74.36       73.98       73.56       73.10       72.59       72.02       71.39       70.71       70.00    
  32  -1000.0       91.73       91.64       91.48       91.23       90.92       90.54       90.12       89.65       89.14    
        88.60       88.04       87.46       86.86       86.25       85.63       85.00       84.38       83.76       83.16    
        82.56       81.98       81.42       80.89       80.39       79.91       79.47       79.05       78.66       78.28    
        77.93       77.59       77.26       76.93       76.61       76.28       75.96       75.63       75.29       74.95    
        74.60       74.23       73.83       73.40       72.93       72.42       71.87       71.28       70.65       70.00    
  33  -1000.0       91.08       91.00       90.85       90.64       90.36       90.02       89.64       89.21       88.75    
        88.25       87.73       87.19       86.64       86.07       85.49       84.90       84.32       83.73       83.16    
        82.59       82.04       81.50       80.99       80.50       80.03       79.59       79.16       78.76       78.38    
        78.01       77.65       77.30       76.96       76.62       76.28       75.94       75.59       75.24       74.88    
        74.51       74.12       73.70       73.26       72.80       72.30       71.76       71.20       70.61       70.00    
  34  -1000.0       90.49       90.42       90.29       90.10       89.85       89.54       89.20       88.81       88.38    
        87.93       87.45       86.94       86.42       85.89       85.34       84.79       84.24       83.69       83.14    
        82.61       82.08       81.56       81.07       80.59       80.12       79.68       79.26       78.85       78.46    
        78.08       77.71       77.34       76.99       76.63       76.28       75.92       75.56       75.19       74.81    
        74.43       74.03       73.60       73.16       72.69       72.20       71.68       71.14       70.57       70.00    
  35  -1000.0       89.97       89.91       89.79       89.61       89.39       89.11       88.79       88.43       88.04    
        87.62       87.17       86.70       86.22       85.72       85.20       84.68       84.16       83.64       83.12    
        82.60       82.10       81.60       81.12       80.65       80.20       79.76       79.33       78.92       78.52    
        78.13       77.75       77.38       77.01       76.64       76.27       75.90       75.53       75.15       74.76    
        74.36       73.95       73.52       73.08       72.61       72.12       71.62       71.09       70.55       70.00    
  36  -1000.0       89.50       89.45       89.34       89.18       88.97       88.71       88.42       88.09       87.73    
        87.33       86.92       86.48       86.02       85.55       85.07       84.58       84.08       83.58       83.09    
        82.59       82.11       81.63       81.16       80.70       80.25       79.81       79.39       78.97       78.57    
        78.18       77.79       77.40       77.03       76.65       76.27       75.89       75.50       75.11       74.72    
        74.31       73.89       73.46       73.01       72.55       72.06       71.57       71.06       70.53       70.00    
  37  -1000.0       89.09       89.04       88.94       88.79       88.59       88.36       88.08       87.77       87.44    
        87.07       86.68       86.27       85.84       85.39       84.94       84.47       84.00       83.52       83.05    
        82.57       82.10       81.64       81.18       80.73       80.29       79.86       79.43       79.02       78.61    
        78.21       77.82       77.43       77.04       76.65       76.27       75.88       75.48       75.09       74.68    
        74.27       73.84       73.41       72.96       72.49       72.02       71.53       71.03       70.52       70.00    
  38  -1000.0       88.73       88.68       88.58       88.44       88.25       88.03       87.78       87.49       87.17    
        86.83       86.46       86.07       85.66       85.24       84.81       84.37       83.92       83.46       83.00    
        82.55       82.09       81.64       81.19       80.75       80.32       79.89       79.47       79.05       78.64    
        78.24       77.84       77.44       77.05       76.66       76.26       75.87       75.47       75.06       74.65    
        74.23       73.80       73.36       72.92       72.45       71.98       71.50       71.01       70.51       70.00    
  39  -1000.0       88.41       88.36       88.26       88.13       87.95       87.74       87.50       87.23       86.93    
        86.60       86.26       85.89       85.50       85.10       84.69       84.27       83.83       83.40       82.96    
        82.52       82.08       81.63       81.20       80.76       80.33       79.91       79.49       79.08       78.67    
        78.26       77.86       77.46       77.06       76.66       76.26       75.86       75.45       75.04       74.62    
        74.20       73.77       73.33       72.88       72.42       71.95       71.48       70.99       70.50       70.00    
  40  -1000.0       88.14       88.09       87.99       87.85       87.68       87.48       87.25       86.99       86.71    
        86.40       86.07       85.72       85.35       84.97       84.58       84.17       83.76       83.34       82.91    
        82.48       82.05       81.62       81.20       80.77       80.35       79.93       79.51       79.10       78.69    
        78.28       77.87       77.47       77.07       76.66       76.26       75.85       75.44       75.02       74.60    
        74.18       73.74       73.30       72.85       72.40       71.93       71.46       70.98       70.49       70.00    
  41  -1000.0       87.93       87.85       87.74       87.61       87.44       87.24       87.02       86.77       86.50    
        86.21       85.90       85.57       85.22       84.85       84.47       84.08       83.68       83.28       82.87    
        82.45       82.03       81.61       81.19       80.77       80.35       79.94       79.52       79.11       78.70    
        78.29       77.88       77.48       77.07       76.66       76.25       75.84       75.43       75.01       74.59    
        74.16       73.72       73.28       72.83       72.38       71.91       71.44       70.97       70.49       70.00    
  42  -1000.0       87.69       87.65       87.53       87.39       87.22       87.03       86.82       86.58       86.32    
        86.05       85.75       85.43       85.09       84.74       84.38       84.00       83.62       83.22       82.82    
        82.42       82.01       81.60       81.18       80.77       80.35       79.94       79.53       79.12       78.71    
        78.30       77.89       77.48       77.07       76.66       76.25       75.84       75.42       75.00       74.57    
        74.14       73.71       73.26       72.82       72.36       71.90       71.43       70.96       70.48       70.00    
  43  -1000.0       87.49       87.43       87.34       87.19       87.03       86.84       86.64       86.41       86.16    
        85.90       85.61       85.31       84.98       84.65       84.29       83.93       83.56       83.17       82.78    
        82.39       81.98       81.58       81.17       80.76       80.35       79.94       79.53       79.12       78.72    
        78.31       77.90       77.49       77.08       76.66       76.25       75.83       75.41       74.99       74.56    
        74.13       73.69       73.25       72.80       72.35       71.89       71.42       70.95       70.48       70.00    
  44  -1000.0       87.32       87.26       87.15       87.01       86.85       86.67       86.47       86.25       86.02    
        85.76       85.49       85.20       84.89       84.56       84.22       83.87       83.50       83.13       82.74    
        82.36       81.96       81.56       81.16       80.76       80.35       79.94       79.54       79.13       78.72    
        78.31       77.90       77.49       77.08       76.66       76.25       75.83       75.41       74.98       74.55    
        74.12       73.68       73.24       72.79       72.34       71.88       71.42       70.95       70.48       70.00    
  45  -1000.0       87.22       87.12       86.99       86.85       86.69       86.51       86.32       86.12       85.89    
        85.65       85.39       85.10       84.80       84.49       84.16       83.81       83.45       83.09       82.71    
        82.33       81.94       81.55       81.15       80.75       80.35       79.94       79.54       79.13       78.72    
        78.31       77.90       77.49       77.08       76.66       76.25       75.83       75.40       74.98       74.55    
        74.11       73.68       73.23       72.78       72.33       71.87       71.41       70.94       70.47       70.00    
  46  -1000.0     -1000.0       86.98       86.85       86.71       86.55       86.37       86.19       85.99       85.78    
        85.55       85.30       85.03       84.74       84.43       84.10       83.77       83.42       83.06       82.69    
        82.31       81.93       81.54       81.14       80.75       80.35       79.94       79.54       79.13       78.72    
        78.31       77.90       77.49       77.08       76.66       76.24       75.82       75.40       74.97       74.54    
        74.11       73.67       73.23       72.78       72.33       71.87       71.41       70.94       70.47       70.00    
  47  -1000.0     -1000.0     -1000.0       86.71       86.57       86.42       86.26       86.07       85.89       85.69    
        85.47       85.23       84.97       84.68       84.38       84.06       83.73       83.39       83.03       82.67    
        82.29       81.91       81.53       81.14       80.74       80.34       79.94       79.54       79.13       78.72    
        78.32       77.91       77.49       77.08       76.66       76.24       75.82       75.40       74.97       74.54    
        74.10       73.66       73.22       72.77       72.32       71.87       71.40       70.94       70.47       70.00    
  48  -1000.0     -1000.0     -1000.0     -1000.0       86.44       86.31       86.17       86.00       85.80       85.61    
        85.41       85.18       84.92       84.65       84.35       84.04       83.71       83.37       83.01       82.65    
        82.28       81.90       81.52       81.13       80.74       80.34       79.94       79.54       79.13       78.73    
        78.32       77.91       77.49       77.08       76.66       76.24       75.82       75.40       74.97       74.54    
        74.10       73.66       73.22       72.77       72.32       71.86       71.40       70.94       70.47       70.00    
  49  -1000.0     -1000.0     -1000.0     -1000.0     -1000.0       86.22       86.11       85.96       85.77       85.55    
        85.37       85.15       84.90       84.63       84.33       84.02       83.70       83.36       83.01       82.65    
        82.28       81.90       81.52       81.13       80.74       80.34       79.94       79.54       79.13       78.73    
        78.32       77.91       77.49       77.08       76.66       76.24       75.82       75.40       74.97       74.54    
        74.10       73.66       73.22       72.77       72.32       71.86       71.40       70.94       70.47       70.00    
  50  -1000.0     -1000.0     -1000.0     -1000.0     -1000.0     -1000.0     -1000.0     -1000.0     -1000.0     -1000.0    
      -1000.0     -1000.0     -1000.0     -1000.0     -1000.0     -1000.0     -1000.0     -1000.0     -1000.0     -1000.0    
      -1000.0     -1000.0     -1000.0     -1000.0     -1000.0     -1000.0     -1000.0     -1000.0     -1000.0     -1000.0    
      -1000.0     -1000.0     -1000.0     -1000.0     -1000.0     -1000.0     -1000.0     -1000.0     -1000.0     -1000.0    
      -1000.0     -1000.0     -1000.0     -1000.0     -1000.0     -1000.0     -1000.0     -1000.0     -1000.0       70.00    
1
              HEAD IN LAYER   2 AT END OF TIME STEP   1 IN STRESS PERIOD    1
  ---------------------------------------------------------------------------

            1           2           3           4           5           6           7           8           9          10
           11          12          13          14          15          16          17          18          19          20
           21          22          23          24          25          26          27          28          29          30
           31          32          33          34          35          36          37          38          39          40
           41          42          43          44          45          46          47          48          49          50
 ........................................................................................................................
   1  -1000.0     -1000.0     -1000.0     -1000.0     -1000.0     -1000.0     -1000.0     -1000.0     -1000.0     -1000.0    
      -1000.0     -1000.0     -1000.0     -1000.0     -1000.0     -1000.0     -1000.0     -1000.0     -1000.0     -1000.0    
      -1000.0     -1000.0     -1000.0     -1000.0     -1000.0     -1000.0     -1000.0     -1000.0     -1000.0     -1000.0    
      -1000.0     -1000.0     -1000.0     -1000.0     -1000.0     -1000.0     -1000.0     -1000.0     -1000.0     -1000.0    
      -1000.0     -1000.0     -1000.0     -1000.0     -1000.0     -1000.0     -1000.0     -1000.0     -1000.0       70.00    
   2  -1000.0     -1000.0     -1000.0     -1000.0     -1000.0     -1000.0     -1000.0       86.13       85.93       85.69    
        85.50       85.27       85.01       84.73       84.42       84.10       83.76       83.41       83.05       82.68    
        82.30       81.92       81.53       81.14       80.74       80.34       79.94       79.53       79.13       78.72    
        78.31       77.90       77.49       77.08       76.66       76.24       75.82       75.40       74.97       74.54    
        74.11       73.67       73.23       72.78       72.32       71.87       71.41       70.94       70.47       70.00    
   3  -1000.0     -1000.0     -1000.0     -1000.0     -1000.0     -1000.0       86.36       86.17       85.96       85.76    
        85.54       85.30       85.03       84.74       84.43       84.11       83.77       83.42       83.06       82.68    
        82.31       81.92       81.53       81.14       80.74       80.34       79.94       79.53       79.13       78.72    
        78.31       77.90       77.49       77.08       76.66       76.24       75.82       75.40       74.97       74.54    
        74.11       73.67       73.23       72.78       72.33       71.87       71.41       70.94       70.47       70.00    
   4  -1000.0     -1000.0     -1000.0     -1000.0     -1000.0       86.63       86.45       86.25       86.05       85.84    
        85.61       85.35       85.08       84.78       84.46       84.13       83.79       83.43       83.07       82.70    
        82.32       81.93       81.54       81.14       80.74       80.34       79.94       79.53       79.13       78.72    
        78.31       77.90       77.49       77.08       76.66       76.25       75.83       75.40       74.98       74.55    
        74.11       73.67       73.23       72.78       72.33       71.87       71.41       70.94       70.47       70.00    
   5  -1000.0     -1000.0     -1000.0     -1000.0       86.93       86.76       86.57       86.38       86.17       85.94    
        85.69       85.42       85.14       84.83       84.51       84.17       83.82       83.46       83.09       82.71    
        82.33       81.94       81.54       81.15       80.75       80.34       79.94       79.53       79.12       78.72    
        78.31       77.90       77.49       77.08       76.66       76.25       75.83       75.41       74.98       74.55    
        74.12       73.68       73.24       72.79       72.33       71.88       71.41       70.95       70.48       70.00    
   6  -1000.0     -1000.0     -1000.0       87.24       87.09       86.91       86.72       86.52       86.29       86.05    
        85.79       85.51       85.21       84.90       84.56       84.22       83.86       83.49       83.12       82.74    
        82.35       81.95       81.55       81.15       80.75       80.34       79.94       79.53       79.12       78.71    
        78.31       77.90       77.49       77.08       76.66       76.25       75.83       75.41       74.99       74.56    
        74.12       73.69       73.24       72.80       72.34       71.88       71.42       70.95       70.48       70.00    
   7  -1000.0     -1000.0       87.53       87.41       87.27       87.09       86.89       86.67       86.44       86.18    
        85.91       85.62       85.30       84.97       84.63       84.28       83.91       83.53       83.15       82.76    
        82.37       81.97       81.56       81.16       80.75       80.34       79.93       79.52       79.12       78.71    
        78.30       77.89       77.48       77.07       76.66       76.25       75.83       75.42       74.99       74.57    
        74.13       73.70       73.25       72.81       72.35       71.89       71.43       70.95       70.48       70.00    
   8  -1000.0       87.78       87.72       87.62       87.46       87.28       87.07       86.85       86.60       86.33    
        86.04       85.74       85.41       85.07       84.71       84.34       83.97       83.58       83.19       82.79    
        82.39       81.98       81.57       81.16       80.75       80.34       79.93       79.52       79.11       78.70    
        78.29       77.89       77.48       77.07       76.66       76.25       75.84       75.42       75.00       74.58    
        74.15       73.71       73.27       72.82       72.36       71.90       71.43       70.96       70.48       70.00    
   9  -1000.0       88.00       87.95       87.82       87.67       87.49       87.28       87.04       86.79       86.50    
        86.20       85.87       85.53       85.17       84.79       84.41       84.03       83.63       83.23       82.83    
        82.41       82.00       81.58       81.17       80.75       80.33       79.92       79.51       79.10       78.69    
        78.28       77.88       77.47       77.07       76.66       76.25       75.84       75.43       75.01       74.59    
        74.16       73.73       73.29       72.84       72.38       71.92       71.45       70.97       70.49       70.00    
  10  -1000.0       88.27       88.18       88.06       87.90       87.72       87.50       87.26       86.99       86.69    
        86.37       86.02       85.66       85.28       84.89       84.49       84.09       83.69       83.28       82.86    
        82.44       82.02       81.59       81.17       80.75       80.33       79.91       79.49       79.08       78.68    
        78.27       77.87       77.46       77.06       76.66       76.26       75.85       75.44       75.03       74.61    
        74.18       73.75       73.31       72.86       72.40       71.93       71.46       70.98       70.49       70.00    
  11  -1000.0       88.50       88.43       88.32       88.17       87.98       87.76       87.50       87.22       86.90    
        86.56       86.19       85.80       85.39       84.98       84.57       84.17       83.75       83.33       82.90    
        82.47       82.03       81.60       81.17       80.74       80.31       79.89       79.48       79.06       78.66    
        78.25       77.85       77.45       77.06       76.66       76.26       75.86       75.45       75.04       74.63    
        74.21       73.78       73.34       72.89       72.43       71.96       71.48       70.99       70.50       70.00    
  12  -1000.0       88.79       88.73       88.62       88.47       88.28       88.04       87.77       87.47       87.14    
        86.77       86.38       85.96       85.52       85.06       84.65       84.24       83.82       83.38       82.94    
        82.49       82.05       81.60       81.16       80.72       80.29       79.87       79.45       79.04       78.63    
        78.23       77.83       77.44       77.05       76.66       76.26       75.87       75.47       75.07       74.65    
        74.24       73.81       73.37       72.92       72.46       71.99       71.50       71.01       70.51       70.00    
  13  -1000.0       89.14       89.08       88.97       88.81       88.61       88.36       88.07       87.75       87.40    
        87.01       86.59       86.14       85.65       85.07       84.74       84.33       83.89       83.44       82.98    
        82.52       82.05       81.60       81.15       80.70       80.26       79.83       79.42       79.00       78.60    
        78.20       77.81       77.42       77.04       76.65       76.27       75.88       75.49       75.09       74.69    
        74.27       73.85       73.41       72.96       72.50       72.02       71.53       71.03       70.52       70.00    
  14  -1000.0       89.54       89.48       89.36       89.20       88.98       88.71       88.41       88.06       87.68    
        87.27       86.83       86.36       85.87       85.36       84.91       84.45       83.98       83.50       83.02    
        82.54       82.06       81.59       81.12       80.67       80.22       79.79       79.37       78.96       78.56    
        78.17       77.78       77.40       77.02       76.65       76.27       75.89       75.51       75.12       74.73    
        74.32       73.90       73.47       73.02       72.55       72.07       71.57       71.06       70.53       70.00    
  15  -1000.0       89.99       89.93       89.81       89.62       89.39       89.10       88.77       88.41       88.00    
        87.56       87.10       86.61       86.10       85.58       85.08       84.58       84.07       83.56       83.05    
        82.55       82.05       81.56       81.08       80.62       80.17       79.73       79.31       78.90       78.51    
        78.12       77.75       77.37       77.01       76.64       76.28       75.91       75.54       75.16       74.77    
        74.37       73.96       73.53       73.08       72.62       72.13       71.62       71.09       70.55       70.00    
  16  -1000.0       90.51       90.44       90.30       90.10       89.85       89.54       89.18       88.78       88.34    
        87.87       87.38       86.86       86.33       85.79       85.24       84.70       84.16       83.62       83.08    
        82.55       82.03       81.53       81.03       80.56       80.10       79.66       79.24       78.84       78.45    
        78.07       77.70       77.34       76.99       76.63       76.28       75.93       75.57       75.20       74.83    
        74.44       74.04       73.61       73.17       72.70       72.20       71.68       71.14       70.58       70.00    
  17  -1000.0       91.09       91.01       90.86       90.64       90.35       90.01       89.62       89.19       88.71    
        88.21       87.68       87.13       86.56       85.99       85.41       84.83       84.25       83.67       83.11    
        82.55       82.00       81.47       80.96       80.47       80.01       79.57       79.15       78.75       78.37    
        78.00       77.65       77.30       76.96       76.62       76.29       75.95       75.61       75.26       74.89    
        74.52       74.13       73.71       73.27       72.80       72.30       71.77       71.20       70.61       70.00    
  18  -1000.0       91.74       91.65       91.48       91.23       90.91       90.53       90.10       89.62       89.11    
        88.56       87.99       87.40       86.80       86.18       85.57       84.95       84.33       83.72       83.11    
        82.52       81.94       81.39       80.86       80.36       79.89       79.45       79.03       78.64       78.27    
        77.92       77.58       77.25       76.93       76.61       76.29       75.97       75.65       75.32       74.97    
        74.62       74.24       73.84       73.40       72.94       72.43       71.88       71.28       70.65       70.00    
  19  -1000.0       92.47       92.37       92.17       91.88       91.52       91.10       90.62       90.09       89.53    
        88.94       88.32       87.69       87.04       86.38       85.72       85.06       84.40       83.75       83.10    
        82.47       81.87       81.28       80.73       80.22       79.74       79.30       78.89       78.52       78.16    
        77.83       77.51       77.20       76.90       76.60       76.30       76.00       75.70       75.38       75.06    
        74.73       74.37       73.99       73.57       73.11       72.59       72.02       71.40       70.72       70.00    
  20  -1000.0       93.30       93.17       92.94       92.61       92.19       91.71       91.17       90.59       89.98    
        89.33       88.66       87.98       87.28       86.58       85.87       85.16       84.46       83.76       83.08    
        82.40       81.76       81.14       80.56       80.03       79.55       79.12       78.72       78.36       78.03    
        77.72       77.42       77.14       76.86       76.58       76.31       76.03       75.75       75.46       75.17    
        74.86       74.53       74.17       73.77       73.32       72.81       72.22       71.56       70.81       70.00    
  21  -1000.0       94.24       94.08       93.80       93.40       92.92       92.37       91.77       91.12       90.44    
        89.74       89.01       88.28       87.53       86.77       86.01       85.25       84.50       83.76       83.03    
        82.30       81.61       80.95       80.34       79.80       79.31       78.89       78.51       78.18       77.87    
        77.59       77.32       77.06       76.81       76.57       76.32       76.07       75.81       75.54       75.29    
        75.02       74.72       74.40       74.03       73.60       73.10       72.50       71.79       70.94       70.00    
  22  -1000.0       95.31       95.12       94.76       94.28       93.71       93.07       92.39       91.67       90.92    
        90.15       89.37       88.57       87.77       86.96       86.14       85.33       84.53       83.73       82.94    
        82.16       81.42       80.71       80.06       79.49       79.01       78.61       78.26       77.96       77.69    
        77.44       77.21       76.98       76.77       76.55       76.33       76.11       75.87       75.60       75.42    
        75.20       74.94       74.66       74.33       73.94       73.48       72.89       72.14       71.17       70.00    
  23  -1000.0       96.58       96.30       95.82       95.22       94.55       93.81       93.04       92.24       91.42    
        90.58       89.73       88.87       88.01       87.14       86.27       85.40       84.54       83.68       82.83    
        81.99       81.18       80.40       79.69       79.09       78.62       78.26       77.97       77.72       77.49    
        77.28       77.09       76.90       76.72       76.53       76.35       76.17       75.97       75.78       75.60    
        75.40       75.19       74.96       74.69       74.37       73.97       73.44       72.69       71.58       70.00    
  24  -1000.0       98.10       97.65       97.00       96.24       95.43       94.58       93.70       92.82       91.91    
        91.00       90.09       89.16       88.24       87.31       86.38       85.45       84.53       83.60       82.69    
        81.78       80.89       80.02       79.22       78.53       78.13       77.85       77.63       77.44       77.27    
        77.11       76.96       76.81       76.66       76.52       76.37       76.23       76.08       75.93       75.78    
        75.63       75.47       75.29       75.09       74.87       74.58       74.19       73.58       72.44       70.00    
  25  -1000.0       100.0       99.19       98.25       97.29       96.33       95.35       94.37       93.39       92.41    
        91.42       90.44       89.45       88.46       87.47       86.48       85.49       84.51       83.52       82.53    
        81.54       80.56       79.57       78.60       77.69       77.51       77.38       77.26       77.15       77.04    
        76.93       76.82       76.71       76.61       76.50       76.40       76.29       76.18       76.08       75.97    
        75.86       75.76       75.65       75.53       75.42       75.29       75.15       74.97       74.50       70.00    
  26  -1000.0       98.10       97.65       97.00       96.24       95.43       94.58       93.71       92.82       91.92    
        91.01       90.09       89.17       88.24       87.32       86.39       85.46       84.53       83.61       82.69    
        81.78       80.89       80.03       79.22       78.54       78.13       77.85       77.63       77.44       77.27    
        77.11       76.96       76.81       76.66       76.52       76.38       76.23       76.08       75.94       75.79    
        75.63       75.47       75.29       75.09       74.86       74.58       74.19       73.58       72.44       70.00    
  27  -1000.0       96.58       96.30       95.82       95.23       94.55       93.81       93.04       92.24       91.42    
        90.59       89.74       88.88       88.02       87.15       86.28       85.41       84.54       83.68       82.83    
        82.00       81.19       80.42       79.71       79.10       78.63       78.27       77.98       77.72       77.50    
        77.29       77.09       76.90       76.72       76.54       76.35       76.17       75.99       75.80       75.61    
        75.41       75.19       74.95       74.68       74.36       73.96       73.43       72.69       71.58       70.00    
  28  -1000.0       95.31       95.12       94.76       94.28       93.71       93.08       92.40       91.68       90.93    
        90.17       89.39       88.59       87.79       86.98       86.16       85.35       84.54       83.74       82.95    
        82.18       81.43       80.73       80.08       79.51       79.02       78.62       78.27       77.97       77.70    
        77.45       77.21       76.99       76.77       76.55       76.33       76.12       75.89       75.67       75.44    
        75.20       74.94       74.65       74.32       73.94       73.47       72.89       72.13       71.17       70.00    
  29  -1000.0       94.24       94.08       93.80       93.41       92.92       92.38       91.77       91.13       90.46    
        89.76       89.04       88.30       87.55       86.80       86.04       85.28       84.52       83.77       83.04    
        82.32       81.63       80.97       80.37       79.82       79.33       78.90       78.53       78.19       77.88    
        77.59       77.32       77.07       76.81       76.57       76.32       76.06       75.80       75.53       75.28    
        75.01       74.72       74.39       74.02       73.59       73.09       72.50       71.78       70.94       70.00    
  30  -1000.0       93.29       93.17       92.94       92.61       92.20       91.72       91.19       90.61       90.00    
        89.36       88.69       88.01       87.32       86.61       85.90       85.19       84.49       83.79       83.10    
        82.43       81.78       81.16       80.59       80.05       79.57       79.13       78.73       78.37       78.04    
        77.72       77.42       77.14       76.86       76.58       76.30       76.02       75.72       75.38       75.14    
        74.85       74.52       74.16       73.77       73.32       72.81       72.22       71.55       70.80       70.00    
  31  -1000.0       92.47       92.37       92.17       91.89       91.53       91.11       90.63       90.11       89.56    
        88.97       88.36       87.73       87.09       86.43       85.77       85.10       84.44       83.78       83.14    
        82.51       81.90       81.31       80.76       80.24       79.76       79.32       78.91       78.53       78.17    
        77.83       77.51       77.20       76.90       76.59       76.29       75.98       75.67       75.35       75.04    
        74.71       74.36       73.98       73.56       73.10       72.59       72.02       71.39       70.71       70.00    
  32  -1000.0       91.73       91.64       91.48       91.23       90.92       90.54       90.12       89.65       89.14    
        88.60       88.04       87.46       86.86       86.25       85.63       85.00       84.38       83.76       83.16    
        82.56       81.98       81.42       80.89       80.39       79.91       79.47       79.05       78.66       78.28    
        77.93       77.59       77.26       76.93       76.61       76.28       75.96       75.63       75.29       74.95    
        74.60       74.23       73.83       73.40       72.93       72.42       71.87       71.28       70.65       70.00    
  33  -1000.0       91.08       91.00       90.85       90.64       90.36       90.02       89.64       89.21       88.75    
        88.25       87.73       87.19       86.64       86.07       85.49       84.90       84.32       83.73       83.16    
        82.59       82.04       81.50       80.99       80.50       80.03       79.59       79.16       78.76       78.38    
        78.01       77.65       77.30       76.96       76.62       76.28       75.94       75.59       75.24       74.88    
        74.51       74.12       73.70       73.26       72.80       72.30       71.76       71.20       70.61       70.00    
  34  -1000.0       90.49       90.42       90.29       90.10       89.85       89.54       89.20       88.81       88.38    
        87.93       87.45       86.94       86.42       85.89       85.34       84.79       84.24       83.69       83.14    
        82.61       82.08       81.56       81.07       80.59       80.12       79.68       79.26       78.85       78.46    
        78.08       77.71       77.34       76.99       76.63       76.28       75.92       75.56       75.19       74.81    
        74.43       74.03       73.60       73.16       72.69       72.20       71.68       71.14       70.57       70.00    
  35  -1000.0       89.97       89.91       89.79       89.61       89.39       89.11       88.79       88.43       88.04    
        87.62       87.17       86.70       86.22       85.72       85.20       84.68       84.16       83.64       83.12    
        82.60       82.10       81.60       81.12       80.65       80.20       79.76       79.33       78.92       78.52    
        78.13       77.75       77.38       77.01       76.64       76.27       75.90       75.53       75.15       74.76    
        74.36       73.95       73.52       73.08       72.61       72.12       71.62       71.09       70.55       70.00    
  36  -1000.0       89.50       89.45       89.34       89.18       88.97       88.71       88.42       88.09       87.73    
        87.33       86.92       86.48       86.02       85.55       85.07       84.58       84.08       83.58       83.09    
        82.59       82.11       81.63       81.16       80.70       80.25       79.81       79.39       78.97       78.57    
        78.18       77.79       77.40       77.03       76.65       76.27       75.89       75.50       75.11       74.72    
        74.31       73.89       73.46       73.01       72.55       72.06       71.57       71.06       70.53       70.00    
  37  -1000.0       89.09       89.04       88.94       88.79       88.59       88.36       88.08       87.77       87.44    
        87.07       86.68       86.27       85.84       85.39       84.94       84.47       84.00       83.52       83.05    
        82.57       82.10       81.64       81.18       80.73       80.29       79.86       79.43       79.02       78.61    
        78.21       77.82       77.43       77.04       76.65       76.27       75.88       75.48       75.09       74.68    
        74.27       73.84       73.41       72.96       72.49       72.02       71.53       71.03       70.52       70.00    
  38  -1000.0       88.73       88.68       88.58       88.44       88.25       88.03       87.78       87.49       87.17    
        86.83       86.46       86.07       85.66       85.24       84.81       84.37       83.92       83.46       83.00    
        82.55       82.09       81.64       81.19       80.75       80.32       79.89       79.47       79.05       78.64    
        78.24       77.84       77.44       77.05       76.66       76.26       75.87       75.47       75.06       74.65    
        74.23       73.80       73.36       72.92       72.45       71.98       71.50       71.01       70.51       70.00    
  39  -1000.0       88.41       88.36       88.26       88.13       87.95       87.74       87.50       87.23       86.93    
        86.60       86.26       85.89       85.50       85.10       84.69       84.27       83.83       83.40       82.96    
        82.52       82.08       81.63       81.20       80.76       80.33       79.91       79.49       79.08       78.67    
        78.26       77.86       77.46       77.06       76.66       76.26       75.86       75.45       75.04       74.62    
        74.20       73.77       73.33       72.88       72.42       71.95       71.48       70.99       70.50       70.00    
  40  -1000.0       88.14       88.09       87.99       87.85       87.68       87.48       87.25       86.99       86.71    
        86.40       86.07       85.72       85.35       84.97       84.58       84.17       83.76       83.34       82.91    
        82.48       82.05       81.62       81.20       80.77       80.35       79.93       79.51       79.10       78.69    
        78.28       77.87       77.47       77.07       76.66       76.26       75.85       75.44       75.02       74.60    
        74.18       73.74       73.30       72.85       72.40       71.93       71.46       70.98       70.49       70.00    
  41  -1000.0       87.93       87.85       87.74       87.61       87.44       87.24       87.02       86.77       86.50    
        86.21       85.90       85.57       85.22       84.85       84.47       84.08       83.68       83.28       82.87    
        82.45       82.03       81.61       81.19       80.77       80.35       79.94       79.52       79.11       78.70    
        78.29       77.88       77.48       77.07       76.66       76.25       75.84       75.43       75.01       74.59    
        74.16       73.72       73.28       72.83       72.38       71.91       71.44       70.97       70.49       70.00    
  42  -1000.0       87.69       87.65       87.53       87.39       87.22       87.03       86.82       86.58       86.32    
        86.05       85.75       85.43       85.09       84.74       84.38       84.00       83.62       83.22       82.82    
        82.42       82.01       81.60       81.18       80.77       80.35       79.94       79.53       79.12       78.71    
        78.30       77.89       77.48       77.07       76.66       76.25       75.84       75.42       75.00       74.57    
        74.14       73.71       73.26       72.82       72.36       71.90       71.43       70.96       70.48       70.00    
  43  -1000.0       87.49       87.43       87.34       87.19       87.03       86.84       86.64       86.41       86.16    
        85.90       85.61       85.31       84.98       84.65       84.29       83.93       83.56       83.17       82.78    
        82.39       81.98       81.58       81.17       80.76       80.35       79.94       79.53       79.12       78.72    
        78.31       77.90       77.49       77.08       76.66       76.25       75.83       75.41       74.99       74.56    
        74.13       73.69       73.25       72.80       72.35       71.89       71.42       70.95       70.48       70.00    
  44  -1000.0     -1000.0       87.26       87.15       87.01       86.85       86.67       86.47       86.25       86.02    
        85.76       85.49       85.20       84.89       84.56       84.22       83.87       83.50       83.13       82.74    
        82.36       81.96       81.56       81.16       80.76       80.35       79.94       79.54       79.13       78.72    
        78.31       77.90       77.49       77.08       76.66       76.25       75.83       75.41       74.98       74.55    
        74.12       73.68       73.24       72.79       72.34       71.88       71.42       70.95       70.48       70.00    
  45  -1000.0     -1000.0     -1000.0       86.99       86.85       86.69       86.51       86.32       86.12       85.89    
        85.65       85.39       85.10       84.80       84.49       84.16       83.81       83.45       83.09       82.71    
        82.33       81.94       81.55       81.15       80.75       80.35       79.94       79.54       79.13       78.72    
        78.31       77.90       77.49       77.08       76.66       76.25       75.83       75.40       74.98       74.55    
        74.11       73.68       73.23       72.78       72.33       71.87       71.41       70.94       70.47       70.00    
  46  -1000.0     -1000.0     -1000.0     -1000.0       86.71       86.55       86.37       86.19       85.99       85.78    
        85.55       85.30       85.03       84.74       84.43       84.10       83.77       83.42       83.06       82.69    
        82.31       81.93       81.54       81.14       80.75       80.35       79.94       79.54       79.13       78.72    
        78.31       77.90       77.49       77.08       76.66       76.24       75.82       75.40       74.97       74.54    
        74.11       73.67       73.23       72.78       72.33       71.87       71.41       70.94       70.47       70.00    
  47  -1000.0     -1000.0     -1000.0     -1000.0     -1000.0       86.42       86.26       86.07       85.89       85.69    
        85.47       85.23       84.97       84.68       84.38       84.06       83.73       83.39       83.03       82.67    
        82.29       81.91       81.53       81.14       80.74       80.34       79.94       79.54       79.13       78.72    
        78.32       77.91       77.49       77.08       76.66       76.24       75.82       75.40       74.97       74.54    
        74.10       73.66       73.22       72.77       72.32       71.87       71.40       70.94       70.47       70.00    
  48  -1000.0     -1000.0     -1000.0     -1000.0     -1000.0     -1000.0       86.17       86.00       85.80       85.61    
        85.41       85.18       84.92       84.65       84.35       84.04       83.71       83.37       83.01       82.65    
        82.28       81.90       81.52       81.13       80.74       80.34       79.94       79.54       79.13       78.73    
        78.32       77.91       77.49       77.08       76.66       76.24       75.82       75.40       74.97       74.54    
        74.10       73.66       73.22       72.77       72.32       71.86       71.40       70.94       70.47       70.00    
  49  -1000.0     -1000.0     -1000.0     -1000.0     -1000.0     -1000.0     -1000.0       85.96       85.77       85.55    
        85.37       85.15       84.90       84.63       84.33       84.02       83.70       83.36       83.01       82.65    
        82.28       81.90       81.52       81.13       80.74       80.34       79.94       79.54       79.13       78.73    
        78.32       77.91       77.49       77.08       76.66       76.24       75.82       75.40       74.97       74.54    
        74.10       73.66       73.22       72.77       72.32       71.86       71.40       70.94       70.47       70.00    
  50  -1000.0     -1000.0     -1000.0     -1000.0     -1000.0     -1000.0     -1000.0     -1000.0     -1000.0     -1000.0    
      -1000.0     -1000.0     -1000.0     -1000.0     -1000.0     -1000.0     -1000.0     -1000.0     -1000.0     -1000.0    
      -1000.0     -1000.0     -1000.0     -1000.0     -1000.0     -1000.0     -1000.0     -1000.0     -1000.0     -1000.0    
      -1000.0     -1000.0     -1000.0     -1000.0     -1000.0     -1000.0     -1000.0     -1000.0     -1000.0     -1000.0    
      -1000.0     -1000.0     -1000.0     -1000.0     -1000.0     -1000.0     -1000.0     -1000.0     -1000.0       70.00    
1
              HEAD IN LAYER   3 AT END OF TIME STEP   1 IN STRESS PERIOD    1
  ---------------------------------------------------------------------------

            1           2           3           4           5           6           7           8           9          10
           11          12          13          14          15          16          17          18          19          20
           21          22          23          24          25          26          27          28          29          30
[...]
        81.99       81.18       80.40       79.69       79.09       78.62       78.26       77.97       77.72       77.49    
        77.28       77.09       76.90       76.72       76.53       76.35       76.17       75.97       75.78       75.60    
        75.40       75.19       74.96       74.69       74.37       73.97       73.44       72.69       71.58       70.00    
  24  -1000.0       98.10       97.65       97.00       96.24       95.43       94.58       93.70       92.82       91.91    
        91.00       90.09       89.16       88.24       87.31       86.38       85.45       84.53       83.60       82.69    
        81.78       80.89       80.02       79.22       78.53       78.13       77.85       77.63       77.44       77.27    
        77.11       76.96       76.81       76.66       76.52       76.37       76.23       76.08       75.93       75.78    
        75.63       75.47       75.29       75.09       74.87       74.58       74.19       73.58       72.44       70.00    
  25  -1000.0       100.0       99.18       98.25       97.29       96.32       95.35       94.37       93.39       92.41    
        91.42       90.44       89.45       88.46       87.47       86.48       85.49       84.51       83.52       82.53    
        81.54       80.56       79.57       78.60       77.69       77.51       77.38       77.26       77.15       77.04    
        76.93       76.82       76.71       76.61       76.50       76.40       76.29       76.18       76.08       75.97    
        75.86       75.76       75.65       75.53       75.42       75.29       75.15       74.97       74.49       70.00    
  26  -1000.0       98.10       97.65       97.00       96.24       95.43       94.58       93.71       92.82       91.92    
        91.01       90.09       89.17       88.24       87.32       86.39       85.46       84.53       83.61       82.69    
        81.78       80.89       80.03       79.22       78.54       78.13       77.85       77.63       77.44       77.27    
        77.11       76.96       76.81       76.66       76.52       76.38       76.23       76.08       75.94       75.79    
        75.63       75.47       75.29       75.09       74.86       74.58       74.19       73.58       72.44       70.00    
  27  -1000.0       96.58       96.30       95.82       95.23       94.55       93.81       93.04       92.24       91.42    
        90.59       89.74       88.88       88.02       87.15       86.28       85.41       84.54       83.68       82.83    
        82.00       81.19       80.42       79.71       79.10       78.63       78.27       77.98       77.72       77.50    
        77.29       77.09       76.90       76.72       76.54       76.35       76.17       75.99       75.80       75.61    
        75.41       75.19       74.95       74.68       74.36       73.96       73.43       72.69       71.58       70.00    
  28  -1000.0       95.31       95.12       94.76       94.28       93.71       93.08       92.40       91.68       90.93    
        90.17       89.39       88.59       87.79       86.98       86.16       85.35       84.54       83.74       82.95    
        82.18       81.43       80.73       80.08       79.51       79.02       78.62       78.27       77.97       77.70    
        77.45       77.21       76.99       76.77       76.55       76.33       76.12       75.89       75.67       75.44    
        75.20       74.94       74.65       74.32       73.94       73.47       72.89       72.13       71.17       70.00    
  29  -1000.0       94.24       94.08       93.80       93.41       92.92       92.38       91.77       91.13       90.46    
        89.76       89.04       88.30       87.55       86.80       86.04       85.28       84.52       83.77       83.04    
        82.32       81.63       80.97       80.37       79.82       79.33       78.90       78.53       78.19       77.88    
        77.59       77.32       77.07       76.81       76.57       76.32       76.06       75.80       75.53       75.28    
        75.01       74.72       74.39       74.02       73.59       73.09       72.50       71.78       70.94       70.00    
  30  -1000.0       93.29       93.17       92.94       92.61       92.20       91.72       91.19       90.61       90.00    
        89.36       88.69       88.01       87.32       86.61       85.90       85.19       84.49       83.79       83.10    
        82.43       81.78       81.16       80.59       80.05       79.57       79.13       78.73       78.37       78.04    
        77.72       77.42       77.14       76.86       76.58       76.30       76.02       75.72       75.38       75.14    
        74.85       74.52       74.16       73.77       73.32       72.81       72.22       71.55       70.80       70.00    
  31  -1000.0       92.47       92.37       92.17       91.89       91.53       91.11       90.63       90.11       89.56    
        88.97       88.36       87.73       87.09       86.43       85.77       85.10       84.44       83.78       83.14    
        82.51       81.90       81.31       80.76       80.24       79.76       79.32       78.91       78.53       78.17    
        77.83       77.51       77.20       76.90       76.59       76.29       75.98       75.67       75.35       75.04    
        74.71       74.36       73.98       73.56       73.10       72.59       72.02       71.39       70.71       70.00    
  32  -1000.0       91.73       91.64       91.48       91.23       90.92       90.54       90.12       89.65       89.14    
        88.60       88.04       87.46       86.86       86.25       85.63       85.00       84.38       83.76       83.16    
        82.56       81.98       81.42       80.89       80.39       79.91       79.47       79.05       78.66       78.28    
        77.93       77.59       77.26       76.93       76.61       76.28       75.96       75.63       75.29       74.95    
        74.60       74.23       73.83       73.40       72.93       72.42       71.87       71.28       70.65       70.00    
  33  -1000.0       91.08       91.00       90.85       90.64       90.36       90.02       89.64       89.21       88.75    
        88.25       87.73       87.19       86.64       86.07       85.49       84.90       84.32       83.73       83.16    
        82.59       82.04       81.50       80.99       80.50       80.03       79.59       79.16       78.76       78.38    
        78.01       77.65       77.30       76.96       76.62       76.28       75.94       75.59       75.24       74.88    
        74.51       74.12       73.70       73.26       72.80       72.30       71.76       71.20       70.61       70.00    
  34  -1000.0       90.49       90.42       90.29       90.10       89.85       89.54       89.20       88.81       88.38    
        87.93       87.45       86.94       86.42       85.89       85.34       84.79       84.24       83.69       83.14    
        82.61       82.08       81.56       81.07       80.59       80.12       79.68       79.26       78.85       78.46    
        78.08       77.71       77.34       76.99       76.63       76.28       75.92       75.56       75.19       74.81    
        74.43       74.03       73.60       73.16       72.69       72.20       71.68       71.14       70.57       70.00    
  35  -1000.0       89.97       89.91       89.79       89.61       89.39       89.11       88.79       88.43       88.04    
        87.62       87.17       86.70       86.22       85.72       85.20       84.68       84.16       83.64       83.12    
        82.60       82.10       81.60       81.12       80.65       80.20       79.76       79.33       78.92       78.52    
        78.13       77.75       77.38       77.01       76.64       76.27       75.90       75.53       75.15       74.76    
        74.36       73.95       73.52       73.08       72.61       72.12       71.62       71.09       70.55       70.00    
  36  -1000.0       89.50       89.45       89.34       89.18       88.97       88.71       88.42       88.09       87.73    
        87.33       86.92       86.48       86.02       85.55       85.07       84.58       84.08       83.58       83.09    
        82.59       82.11       81.63       81.16       80.70       80.25       79.81       79.39       78.97       78.57    
        78.18       77.79       77.40       77.03       76.65       76.27       75.89       75.50       75.11       74.72    
        74.31       73.89       73.46       73.01       72.55       72.06       71.57       71.06       70.53       70.00    
  37  -1000.0       89.09       89.04       88.94       88.79       88.59       88.36       88.08       87.77       87.44    
        87.07       86.68       86.27       85.84       85.39       84.94       84.47       84.00       83.52       83.05    
        82.57       82.10       81.64       81.18       80.73       80.29       79.86       79.43       79.02       78.61    
        78.21       77.82       77.43       77.04       76.65       76.27       75.88       75.48       75.09       74.68    
        74.27       73.84       73.41       72.96       72.49       72.02       71.53       71.03       70.52       70.00    
  38  -1000.0       88.73       88.68       88.58       88.44       88.25       88.03       87.78       87.49       87.17    
        86.83       86.46       86.07       85.66       85.24       84.81       84.37       83.92       83.46       83.00    
        82.55       82.09       81.64       81.19       80.75       80.32       79.89       79.47       79.05       78.64    
        78.24       77.84       77.44       77.05       76.66       76.26       75.87       75.47       75.06       74.65    
        74.23       73.80       73.36       72.92       72.45       71.98       71.50       71.01       70.51       70.00    
  39  -1000.0       88.41       88.36       88.26       88.13       87.95       87.74       87.50       87.23       86.93    
        86.60       86.26       85.89       85.50       85.10       84.69       84.27       83.83       83.40       82.96    
        82.52       82.08       81.63       81.20       80.76       80.33       79.91       79.49       79.08       78.67    
        78.26       77.86       77.46       77.06       76.66       76.26       75.86       75.45       75.04       74.62    
        74.20       73.77       73.33       72.88       72.42       71.95       71.48       70.99       70.50       70.00    
  40  -1000.0       88.14       88.09       87.99       87.85       87.68       87.48       87.25       86.99       86.71    
        86.40       86.07       85.72       85.35       84.97       84.58       84.17       83.76       83.34       82.91    
        82.48       82.05       81.62       81.20       80.77       80.35       79.93       79.51       79.10       78.69    
        78.28       77.87       77.47       77.07       76.66       76.26       75.85       75.44       75.02       74.60    
        74.18       73.74       73.30       72.85       72.40       71.93       71.46       70.98       70.49       70.00    
  41  -1000.0       87.93       87.85       87.74       87.61       87.44       87.24       87.02       86.77       86.50    
        86.21       85.90       85.57       85.22       84.85       84.47       84.08       83.68       83.28       82.87    
        82.45       82.03       81.61       81.19       80.77       80.35       79.94       79.52       79.11       78.70    
        78.29       77.88       77.48       77.07       76.66       76.25       75.84       75.43       75.01       74.59    
        74.16       73.72       73.28       72.83       72.38       71.91       71.44       70.97       70.49       70.00    
  42  -1000.0     -1000.0       87.65       87.53       87.39       87.22       87.03       86.82       86.58       86.32    
        86.05       85.75       85.43       85.09       84.74       84.38       84.00       83.62       83.22       82.82    
        82.42       82.01       81.60       81.18       80.77       80.35       79.94       79.53       79.12       78.71    
        78.30       77.89       77.48       77.07       76.66       76.25       75.84       75.42       75.00       74.57    
        74.14       73.71       73.26       72.82       72.36       71.90       71.43       70.96       70.48       70.00    
  43  -1000.0     -1000.0     -1000.0       87.34       87.19       87.03       86.84       86.64       86.41       86.16    
        85.90       85.61       85.31       84.98       84.65       84.29       83.93       83.56       83.17       82.78    
        82.39       81.98       81.58       81.17       80.76       80.35       79.94       79.53       79.12       78.72    
        78.31       77.90       77.49       77.08       76.66       76.25       75.83       75.41       74.99       74.56    
        74.13       73.69       73.25       72.80       72.35       71.89       71.42       70.95       70.48       70.00    
  44  -1000.0     -1000.0     -1000.0     -1000.0       87.01       86.85       86.67       86.47       86.25       86.02    
        85.76       85.49       85.20       84.89       84.56       84.22       83.87       83.50       83.13       82.74    
        82.36       81.96       81.56       81.16       80.76       80.35       79.94       79.54       79.13       78.72    
        78.31       77.90       77.49       77.08       76.66       76.25       75.83       75.41       74.98       74.55    
        74.12       73.68       73.24       72.79       72.34       71.88       71.42       70.95       70.48       70.00    
  45  -1000.0     -1000.0     -1000.0     -1000.0     -1000.0       86.69       86.51       86.32       86.12       85.89    
        85.65       85.39       85.10       84.80       84.49       84.16       83.81       83.45       83.09       82.71    
        82.33       81.94       81.55       81.15       80.75       80.35       79.94       79.54       79.13       78.72    
        78.31       77.90       77.49       77.08       76.66       76.25       75.83       75.40       74.98       74.55    
        74.11       73.67       73.23       72.78       72.33       71.87       71.41       70.94       70.47       70.00    
  46  -1000.0     -1000.0     -1000.0     -1000.0     -1000.0     -1000.0       86.37       86.19       85.99       85.78    
        85.55       85.30       85.03       84.74       84.43       84.10       83.77       83.42       83.06       82.69    
        82.31       81.93       81.54       81.14       80.75       80.35       79.94       79.54       79.13       78.72    
        78.31       77.90       77.49       77.08       76.66       76.24       75.82       75.40       74.97       74.54    
        74.11       73.67       73.23       72.78       72.33       71.87       71.41       70.94       70.47       70.00    
  47  -1000.0     -1000.0     -1000.0     -1000.0     -1000.0     -1000.0     -1000.0       86.07       85.89       85.69    
        85.47       85.23       84.97       84.68       84.38       84.06       83.73       83.39       83.03       82.67    
        82.29       81.91       81.53       81.14       80.74       80.34       79.94       79.54       79.13       78.72    
        78.32       77.91       77.49       77.08       76.66       76.24       75.82       75.40       74.97       74.54    
        74.10       73.66       73.22       72.77       72.32       71.87       71.40       70.94       70.47       70.00    
  48  -1000.0     -1000.0     -1000.0     -1000.0     -1000.0     -1000.0     -1000.0     -1000.0       85.80       85.61    
        85.41       85.18       84.92       84.65       84.35       84.04       83.71       83.37       83.01       82.65    
        82.28       81.90       81.52       81.13       80.74       80.34       79.94       79.54       79.13       78.73    
        78.32       77.91       77.49       77.08       76.66       76.24       75.82       75.40       74.97       74.54    
        74.10       73.66       73.22       72.77       72.32       71.86       71.40       70.94       70.47       70.00    
  49  -1000.0     -1000.0     -1000.0     -1000.0     -1000.0     -1000.0     -1000.0     -1000.0     -1000.0       85.55    
        85.37       85.15       84.90       84.63       84.33       84.02       83.70       83.36       83.01       82.65    
        82.28       81.90       81.52       81.13       80.74       80.34       79.94       79.54       79.13       78.73    
        78.32       77.91       77.49       77.08       76.66       76.24       75.82       75.40       74.97       74.54    
        74.10       73.66       73.22       72.77       72.32       71.86       71.40       70.94       70.47       70.00    
  50  -1000.0     -1000.0     -1000.0     -1000.0     -1000.0     -1000.0     -1000.0     -1000.0     -1000.0     -1000.0    
      -1000.0     -1000.0     -1000.0     -1000.0     -1000.0     -1000.0     -1000.0     -1000.0     -1000.0     -1000.0    
      -1000.0     -1000.0     -1000.0     -1000.0     -1000.0     -1000.0     -1000.0     -1000.0     -1000.0     -1000.0    
      -1000.0     -1000.0     -1000.0     -1000.0     -1000.0     -1000.0     -1000.0     -1000.0     -1000.0     -1000.0    
      -1000.0     -1000.0     -1000.0     -1000.0     -1000.0     -1000.0     -1000.0     -1000.0     -1000.0       70.00    

 HEAD WILL BE SAVED ON UNIT   51 AT END OF TIME STEP    1, STRESS PERIOD    1

 DRAWDOWN WILL BE SAVED ON UNIT   52 AT END OF TIME STEP    1, STRESS PERIOD    1
1
  VOLUMETRIC BUDGET FOR ENTIRE MODEL AT END OF TIME STEP    1, STRESS PERIOD   1
  ------------------------------------------------------------------------------

     CUMULATIVE VOLUMES      L**3       RATES FOR THIS TIME STEP      L**3/T
     ------------------                 ------------------------

           IN:                                      IN:
           ---                                      ---
             STORAGE =           0.0000               STORAGE =           0.0000
       CONSTANT HEAD =           0.0000         CONSTANT HEAD =           0.0000
               WELLS =         375.0000                 WELLS =         375.0000
       RIVER LEAKAGE =      357001.5000         RIVER LEAKAGE =      357001.5000
                  ET =           0.0000                    ET =           0.0000
            RECHARGE =        7120.0000              RECHARGE =        7120.0000

            TOTAL IN =      364496.5000              TOTAL IN =      364496.5000

          OUT:                                     OUT:
          ----                                     ----
             STORAGE =           0.0000               STORAGE =           0.0000
       CONSTANT HEAD =      266951.4688         CONSTANT HEAD =      266951.4688
               WELLS =        7500.0000                 WELLS =        7500.0000
       RIVER LEAKAGE =       89603.6484         RIVER LEAKAGE =       89603.6484
                  ET =         440.7462                    ET =         440.7462
            RECHARGE =           0.0000              RECHARGE =           0.0000

           TOTAL OUT =      364495.8750             TOTAL OUT =      364495.8750

            IN - OUT =           0.6250              IN - OUT =           0.6250

 PERCENT DISCREPANCY =           0.00     PERCENT DISCREPANCY =           0.00






         TIME SUMMARY AT END OF TIME STEP    1 IN STRESS PERIOD    1
                    SECONDS     MINUTES      HOURS       DAYS        YEARS
                    -----------------------------------------------------------
   TIME STEP LENGTH  86400.      1440.0      24.000      1.0000     2.73785E-03
 STRESS PERIOD TIME  86400.      1440.0      24.000      1.0000     2.73785E-03
         TOTAL TIME  86400.      1440.0      24.000      1.0000     2.73785E-03
1

 Run end date and time (yyyy/mm/dd hh:mm:ss): 2026/02/25  7:16:30
 Elapsed run time: 15.274 Seconds

