                                  MODFLOW-2005     
      U.S. GEOLOGICAL SURVEY MODULAR FINITE-DIFFERENCE GROUND-WATER FLOW MODEL
                            VERSION 1.12.00 2/3/2017

 LIST FILE: static_ensemble_S1bc_3311113.list
                         UNIT    2

 OPENING static_ensemble_S1bc_3311113.dis
 FILE TYPE:DIS   UNIT   11   STATUS:OLD    
 FORMAT:FORMATTED              ACCESS:SEQUENTIAL          

 OPENING static_ensemble_S1bc_3311113.bas
 FILE TYPE:BAS6   UNIT   13   STATUS:OLD    
 FORMAT:FORMATTED              ACCESS:SEQUENTIAL          

 OPENING static_ensemble_S1bc_3311113.lpf
 FILE TYPE:LPF   UNIT   15   STATUS:OLD    
 FORMAT:FORMATTED              ACCESS:SEQUENTIAL          

 OPENING static_ensemble_S1bc_3311113.evt
 FILE TYPE:EVT   UNIT   22   STATUS:OLD    
 FORMAT:FORMATTED              ACCESS:SEQUENTIAL          

 OPENING static_ensemble_S1bc_3311113.rch
 FILE TYPE:RCH   UNIT   19   STATUS:OLD    
 FORMAT:FORMATTED              ACCESS:SEQUENTIAL          

 OPENING static_ensemble_S1bc_3311113.riv
 FILE TYPE:RIV   UNIT   18   STATUS:OLD    
 FORMAT:FORMATTED              ACCESS:SEQUENTIAL          

 OPENING static_ensemble_S1bc_3311113.wel
 FILE TYPE:WEL   UNIT   20   STATUS:OLD    
 FORMAT:FORMATTED              ACCESS:SEQUENTIAL          

 OPENING static_ensemble_S1bc_3311113.oc
 FILE TYPE:OC   UNIT   14   STATUS:OLD    
 FORMAT:FORMATTED              ACCESS:SEQUENTIAL          

 OPENING static_ensemble_S1bc_3311113.pcg
 FILE TYPE:PCG   UNIT   27   STATUS:OLD    
 FORMAT:FORMATTED              ACCESS:SEQUENTIAL          

 OPENING static_ensemble_S1bc_3311113.cbc
 FILE TYPE:DATA(BINARY)   UNIT   53   STATUS:REPLACE
 FORMAT:UNFORMATTED            ACCESS:STREAM              

 OPENING static_ensemble_S1bc_3311113.hds
 FILE TYPE:DATA(BINARY)   UNIT   51   STATUS:REPLACE
 FORMAT:UNFORMATTED            ACCESS:STREAM              

 OPENING static_ensemble_S1bc_3311113.ddn
 FILE TYPE:DATA(BINARY)   UNIT   52   STATUS:REPLACE
 FORMAT:UNFORMATTED            ACCESS:STREAM              

 BAS -- BASIC PACKAGE, VERSION 7, 5/2/2005 INPUT READ FROM UNIT   13
 
 MODFLOW was compiled using mixed precision
 Precision of REAL variables:           6
 Precision of DOUBLE PRECISION variables:          15

 DISCRETIZATION INPUT DATA READ FROM UNIT   11
 # DIS package for MODFLOW-2005 generated by Flopy 3.10.0
    3 LAYERS        50 ROWS        50 COLUMNS
    1 STRESS PERIOD(S) IN SIMULATION
 MODEL TIME UNIT IS DAYS
 MODEL LENGTH UNIT IS METERS
  Confining bed flag for each layer:
   0   0   0

                     DELR =   1000.00    

                     DELC =   1000.00    



           TOP ELEVATION OF LAYER 1
 READING ON UNIT   11 WITH FORMAT: (50E15.6)           



             MODEL LAYER BOTTOM EL. FOR LAYER   1
 READING ON UNIT   11 WITH FORMAT: (50E15.6)           



             MODEL LAYER BOTTOM EL. FOR LAYER   2
 READING ON UNIT   11 WITH FORMAT: (50E15.6)           



             MODEL LAYER BOTTOM EL. FOR LAYER   3
 READING ON UNIT   11 WITH FORMAT: (50E15.6)           


 STRESS PERIOD     LENGTH       TIME STEPS     MULTIPLIER FOR DELT    SS FLAG
 ----------------------------------------------------------------------------
        1         1.000000          1                    1.000         SS

 STEADY-STATE SIMULATION



 
 # BAS6 package for MODFLOW-2005 generated by Flopy 3.10.0                       
 THE FREE FORMAT OPTION HAS BEEN SELECTED



                     BOUNDARY ARRAY FOR LAYER   1
 READING ON UNIT   13 WITH FORMAT: (50I10)             



                     BOUNDARY ARRAY FOR LAYER   2
 READING ON UNIT   13 WITH FORMAT: (50I10)             



                     BOUNDARY ARRAY FOR LAYER   3
 READING ON UNIT   13 WITH FORMAT: (50I10)             

 AQUIFER HEAD WILL BE SET TO  -999.99     AT ALL NO-FLOW NODES (IBOUND=0).



                       INITIAL HEAD FOR LAYER   1
 READING ON UNIT   13 WITH FORMAT: (50E15.6)           



                       INITIAL HEAD FOR LAYER   2
 READING ON UNIT   13 WITH FORMAT: (50E15.6)           



                       INITIAL HEAD FOR LAYER   3
 READING ON UNIT   13 WITH FORMAT: (50E15.6)           
 # OC package for MODFLOW-2005 generated by Flopy 3.10.0

 OUTPUT CONTROL IS SPECIFIED ONLY AT TIME STEPS FOR WHICH OUTPUT IS DESIRED
 COMPACT CELL-BY-CELL BUDGET FILES WILL BE WRITTEN
 AUXILIARY DATA WILL BE SAVED IN CELL-BY-CELL BUDGET FILES
 HEAD PRINT FORMAT CODE IS   0    DRAWDOWN PRINT FORMAT CODE IS   0
 HEADS WILL BE SAVED ON UNIT   51    DRAWDOWNS WILL BE SAVED ON UNIT   52

 LPF -- LAYER-PROPERTY FLOW PACKAGE, VERSION 7, 5/2/2005
         INPUT READ FROM UNIT   15
 # LPF package for MODFLOW-2005 generated by Flopy 3.10.0
 CELL-BY-CELL FLOWS WILL BE SAVED ON UNIT   53
 HEAD AT CELLS THAT CONVERT TO DRY= -1.00000E+30
 No named parameters
 STORAGECOEFFICIENT OPTION:
 Read storage coefficient rather than specific storage

   LAYER FLAGS:
 LAYER       LAYTYP        LAYAVG         CHANI        LAYVKA        LAYWET
 ---------------------------------------------------------------------------
    1             1             0     1.000E+00             0             0
    2             1             0     1.000E+00             0             0
    3             1             0     1.000E+00             0             0

   INTERPRETATION OF LAYER FLAGS:
                        INTERBLOCK     HORIZONTAL    DATA IN
         LAYER TYPE   TRANSMISSIVITY   ANISOTROPY   ARRAY VKA   WETTABILITY
 LAYER      (LAYTYP)      (LAYAVG)       (CHANI)      (LAYVKA)      (LAYWET)
 ---------------------------------------------------------------------------
    1   CONVERTIBLE      HARMONIC     1.000E+00    VERTICAL K  NON-WETTABLE
    2   CONVERTIBLE      HARMONIC     1.000E+00    VERTICAL K  NON-WETTABLE
    3   CONVERTIBLE      HARMONIC     1.000E+00    VERTICAL K  NON-WETTABLE

 WETTING CAPABILITY IS NOT ACTIVE IN ANY LAYER



              HYD. COND. ALONG ROWS FOR LAYER   1
 READING ON UNIT   15 WITH FORMAT: (50E15.6)           



                VERTICAL HYD. COND. FOR LAYER   1
 READING ON UNIT   15 WITH FORMAT: (50E15.6)           



              HYD. COND. ALONG ROWS FOR LAYER   2
 READING ON UNIT   15 WITH FORMAT: (50E15.6)           



                VERTICAL HYD. COND. FOR LAYER   2
 READING ON UNIT   15 WITH FORMAT: (50E15.6)           



              HYD. COND. ALONG ROWS FOR LAYER   3
 READING ON UNIT   15 WITH FORMAT: (50E15.6)           



                VERTICAL HYD. COND. FOR LAYER   3
 READING ON UNIT   15 WITH FORMAT: (50E15.6)           

 WEL -- WELL PACKAGE, VERSION 7, 5/2/2005 INPUT READ FROM UNIT   20
 # WEL package for MODFLOW-2005 generated by Flopy 3.10.0
 No named parameters
 MAXIMUM OF      3 ACTIVE WELLS AT ONE TIME


     0 Well parameters

 RIV -- RIVER PACKAGE, VERSION 7, 5/2/2005 INPUT READ FROM UNIT   18
 # RIV package for MODFLOW-2005 generated by Flopy 3.10.0
 No named parameters
 MAXIMUM OF     49 ACTIVE RIVER REACHES AT ONE TIME
 CELL-BY-CELL FLOWS WILL BE SAVED ON UNIT   53


     0 River parameters

 EVT -- EVAPOTRANSPIRATION PACKAGE, VERSION 7, 5/2/2005
         INPUT READ FROM UNIT   22
 # EVT package for MODFLOW-2005 generated by Flopy 3.10.0
 No named parameters
 OPTION 3 -- EVAPOTRANSPIRATION FROM HIGHEST ACTIVE NODE IN EACH VERTICAL COLUMN
 CELL-BY-CELL FLOWS WILL BE SAVED ON UNIT   53


     0 Evapotranspiration parameters

 RCH -- RECHARGE PACKAGE, VERSION 7, 5/2/2005 INPUT READ FROM UNIT   19
 # RCH package for MODFLOW-2005 generated by Flopy 3.10.0
 No named parameters
 OPTION 3 -- RECHARGE TO HIGHEST ACTIVE NODE IN EACH VERTICAL COLUMN
 CELL-BY-CELL FLOWS WILL BE SAVED ON UNIT   53


     0 Recharge parameters

 PCG -- CONJUGATE-GRADIENT SOLUTION PACKAGE, VERSION 7, 5/2/2005
 # PCG package for MODFLOW-2005 generated by Flopy 3.10.0
 MAXIMUM OF   5000 CALLS OF SOLUTION ROUTINE
 MAXIMUM OF    500 INTERNAL ITERATIONS PER CALL TO SOLUTION ROUTINE
 MATRIX PRECONDITIONING TYPE :    1



                                    SOLUTION BY THE CONJUGATE-GRADIENT METHOD
                                   -------------------------------------------
                    MAXIMUM NUMBER OF CALLS TO PCG ROUTINE =     5000
                        MAXIMUM ITERATIONS PER CALL TO PCG =      500
                               MATRIX PRECONDITIONING TYPE =        1
        RELAXATION FACTOR (ONLY USED WITH PRECOND. TYPE 1) =    0.97000E+00
 PARAMETER OF POLYNOMIAL PRECOND. = 2 (2) OR IS CALCULATED :        0
                         HEAD CHANGE CRITERION FOR CLOSURE =    0.10000E-04
                     RESIDUAL CHANGE CRITERION FOR CLOSURE =    0.10000E-04
            PCG HEAD AND RESIDUAL CHANGE PRINTOUT INTERVAL =      999
     PRINTING FROM SOLVER IS LIMITED(1) OR SUPPRESSED (>1) =        3
                            STEADY-STATE DAMPING PARAMETER =    0.10000E-01
                               TRANSIENT DAMPING PARAMETER =    0.10000E-01
1
                            STRESS PERIOD NO.    1, LENGTH =   1.000000    
                            -----------------------------------------------

                              NUMBER OF TIME STEPS =     1

                               MULTIPLIER FOR DELT =     1.000

                            INITIAL TIME STEP SIZE =   1.000000    

 WELL NO.  LAYER   ROW   COL   STRESS RATE         
 --------------------------------------------------
      1      3     22     39      -1500.    
      2      1     13     15      -4500.    
      3      1     25     26       375.0    

      3 WELLS

 REACH NO.  LAYER   ROW   COL     STAGE      CONDUCTANCE     BOTTOM EL.         
 -------------------------------------------------------------------------------
      1      1     25      2       100.5          0.1000E+06       98.00    
      2      1     25      3       99.50          0.1000E+06       97.00    
      3      1     25      4       98.50          0.1000E+06       96.00    
      4      1     25      5       97.50          0.1000E+06       95.00    
      5      1     25      6       96.50          0.1000E+06       94.00    
      6      1     25      7       95.50          0.1000E+06       93.00    
      7      1     25      8       94.50          0.1000E+06       92.00    
      8      1     25      9       93.50          0.1000E+06       91.00    
      9      1     25     10       92.50          0.1000E+06       90.00    
     10      1     25     11       91.50          0.1000E+06       89.00    
     11      1     25     12       90.50          0.1000E+06       88.00    
     12      1     25     13       89.50          0.1000E+06       87.00    
     13      1     25     14       88.50          0.1000E+06       86.00    
     14      1     25     15       87.50          0.1000E+06       85.00    
     15      1     25     16       86.50          0.1000E+06       84.00    
     16      1     25     17       85.50          0.1000E+06       83.00    
     17      1     25     18       84.50          0.1000E+06       82.00    
     18      1     25     19       83.50          0.1000E+06       81.00    
     19      1     25     20       82.50          0.1000E+06       80.00    
     20      1     25     21       81.50          0.1000E+06       79.00    
     21      1     25     22       80.50          0.1000E+06       78.00    
     22      1     25     23       79.50          0.1000E+06       77.00    
     23      1     25     24       78.50          0.1000E+06       76.00    
     24      1     25     25       77.50          0.1000E+06       75.00    
     25      1     25     26       77.40          0.1000E+06       74.90    
     26      1     25     27       77.30          0.1000E+06       74.80    
     27      1     25     28       77.20          0.1000E+06       74.70    
     28      1     25     29       77.10          0.1000E+06       74.60    
     29      1     25     30       77.00          0.1000E+06       74.50    
     30      1     25     31       76.90          0.1000E+06       74.40    
     31      1     25     32       76.80          0.1000E+06       74.30    
     32      1     25     33       76.70          0.1000E+06       74.20    
     33      1     25     34       76.60          0.1000E+06       74.10    
     34      1     25     35       76.50          0.1000E+06       74.00    
     35      1     25     36       76.40          0.1000E+06       73.90    
     36      1     25     37       76.30          0.1000E+06       73.80    
     37      1     25     38       76.20          0.1000E+06       73.70    
     38      1     25     39       76.10          0.1000E+06       73.60    
     39      1     25     40       76.00          0.1000E+06       73.50    
     40      1     25     41       75.90          0.1000E+06       73.40    
     41      1     25     42       75.80          0.1000E+06       73.30    
     42      1     25     43       75.70          0.1000E+06       73.20    
     43      1     25     44       75.60          0.1000E+06       73.10    
     44      1     25     45       75.50          0.1000E+06       73.00    
     45      1     25     46       75.40          0.1000E+06       72.90    
     46      1     25     47       75.30          0.1000E+06       72.80    
     47      1     25     48       75.20          0.1000E+06       72.70    
     48      1     25     49       75.10          0.1000E+06       72.60    
     49      1     25     50       75.00          0.1000E+06       72.50    

     49 RIVER REACHES



                         ET SURFACE
 READING ON UNIT   22 WITH FORMAT: (50E15.6)           



            EVAPOTRANSPIRATION RATE
 READING ON UNIT   22 WITH FORMAT: (50E15.6)           

         EXTINCTION DEPTH =   10.0000    



                           RECHARGE
 READING ON UNIT   19 WITH FORMAT: (50E15.6)           
 
 SOLVING FOR HEAD 

 OUTPUT CONTROL FOR STRESS PERIOD    1   TIME STEP    1
    SAVE HEAD FOR ALL LAYERS
    SAVE DRAWDOWN FOR ALL LAYERS
    SAVE BUDGET
    PRINT HEAD FOR ALL LAYERS
    PRINT BUDGET
 UBDSV2 SAVING "   CONSTANT HEAD" ON UNIT  53 AT TIME STEP  1, STRESS PERIOD   1
 UBDSV1 SAVING "FLOW RIGHT FACE " ON UNIT  53 AT TIME STEP  1, STRESS PERIOD   1
 UBDSV1 SAVING "FLOW FRONT FACE " ON UNIT  53 AT TIME STEP  1, STRESS PERIOD   1
 UBDSV1 SAVING "FLOW LOWER FACE " ON UNIT  53 AT TIME STEP  1, STRESS PERIOD   1
 UBDSV4 SAVING "   RIVER LEAKAGE" ON UNIT  53 AT TIME STEP  1, STRESS PERIOD   1
 UBDSV3 SAVING "              ET" ON UNIT  53 AT TIME STEP  1, STRESS PERIOD   1
 UBDSV3 SAVING "        RECHARGE" ON UNIT  53 AT TIME STEP  1, STRESS PERIOD   1
1
              HEAD IN LAYER   1 AT END OF TIME STEP   1 IN STRESS PERIOD    1
  ---------------------------------------------------------------------------

            1           2           3           4           5           6           7           8           9          10
           11          12          13          14          15          16          17          18          19          20
           21          22          23          24          25          26          27          28          29          30
           31          32          33          34          35          36          37          38          39          40
           41          42          43          44          45          46          47          48          49          50
 ........................................................................................................................
   1    70.00       70.55       71.08       71.60       72.11       72.58       73.04       73.46       73.85       74.21    
        74.53       74.82       75.08       75.30       75.48       75.63       75.76       75.85       75.91       75.95    
        75.97       75.95       75.92       75.87       75.79       75.70       75.59       75.46       75.32       75.17    
        75.00       74.82       74.63       74.42       74.21       73.98       73.75       73.50       73.25       72.99    
        72.72       72.44       72.15       71.86       71.56       71.26       70.95       70.64       70.32       70.00    
   2    70.00       70.55       71.09       71.62       72.12       72.61       73.06       73.49       73.88       74.24    
        74.56       74.85       75.11       75.33       75.51       75.66       75.79       75.88       75.94       75.98    
        75.99       75.98       75.94       75.89       75.81       75.72       75.60       75.48       75.34       75.18    
        75.01       74.83       74.64       74.43       74.22       73.99       73.76       73.51       73.26       73.00    
        72.73       72.45       72.16       71.87       71.57       71.26       70.95       70.64       70.32       70.00    
   3    70.00       70.56       71.11       71.65       72.16       72.65       73.11       73.54       73.94       74.30    
        74.63       74.92       75.17       75.39       75.58       75.73       75.84       75.93       75.99       76.03    
        76.04       76.02       75.98       75.92       75.85       75.75       75.64       75.51       75.36       75.21    
        75.04       74.85       74.66       74.45       74.24       74.01       73.78       73.53       73.27       73.01    
        72.74       72.46       72.17       71.88       71.58       71.27       70.96       70.64       70.32       70.00    
   4    70.00       70.58       71.14       71.69       72.22       72.72       73.19       73.63       74.03       74.40    
        74.73       75.02       75.27       75.49       75.67       75.82       75.93       76.02       76.07       76.10    
        76.11       76.09       76.05       75.98       75.90       75.80       75.68       75.55       75.40       75.24    
        75.07       74.89       74.69       74.48       74.27       74.04       73.80       73.55       73.30       73.03    
        72.76       72.48       72.19       71.89       71.59       71.28       70.97       70.65       70.32       70.00    
   5    70.00       70.60       71.19       71.75       72.30       72.81       73.30       73.74       74.16       74.53    
        74.86       75.15       75.40       75.62       75.80       75.94       76.05       76.13       76.18       76.21    
        76.20       76.18       76.13       76.06       75.97       75.87       75.75       75.61       75.46       75.30    
        75.12       74.93       74.73       74.52       74.30       74.08       73.84       73.59       73.33       73.06    
        72.79       72.50       72.21       71.91       71.61       71.29       70.98       70.65       70.33       70.00    
   6    70.00       70.63       71.24       71.83       72.40       72.93       73.43       73.90       74.32       74.69    
        75.03       75.32       75.57       75.78       75.96       76.10       76.20       76.27       76.32       76.33    
        76.32       76.29       76.23       76.16       76.06       75.95       75.82       75.68       75.53       75.36    
        75.18       74.99       74.79       74.57       74.35       74.12       73.88       73.63       73.37       73.10    
        72.82       72.54       72.24       71.94       71.63       71.31       70.99       70.66       70.33       70.00    
   7    70.00       70.66       71.31       71.93       72.53       73.09       73.61       74.08       74.51       74.90    
        75.24       75.53       75.78       75.99       76.15       76.28       76.38       76.44       76.48       76.49    
        76.47       76.42       76.36       76.27       76.17       76.05       75.91       75.77       75.60       75.43    
        75.25       75.05       74.85       74.63       74.41       74.17       73.93       73.68       73.42       73.15    
        72.87       72.58       72.28       71.97       71.66       71.34       71.01       70.68       70.34       70.00    
   8    70.00       70.71       71.39       72.05       72.68       73.27       73.81       74.31       74.75       75.15    
        75.49       75.78       76.02       76.22       76.38       76.50       76.59       76.64       76.67       76.66    
        76.63       76.58       76.50       76.40       76.29       76.16       76.02       75.86       75.69       75.52    
        75.33       75.13       74.92       74.70       74.47       74.24       73.99       73.74       73.47       73.20    
        72.92       72.62       72.32       72.01       71.69       71.36       71.03       70.69       70.35       70.00    
   9    70.00       70.76       71.50       72.20       72.87       73.49       74.06       74.58       75.04       75.44    
        75.79       76.07       76.31       76.50       76.65       76.76       76.83       76.87       76.89       76.87    
        76.82       76.75       76.66       76.55       76.43       76.29       76.14       75.97       75.80       75.61    
        75.42       75.21       75.00       74.78       74.55       74.31       74.06       73.80       73.54       73.26    
        72.97       72.68       72.37       72.06       71.73       71.40       71.06       70.71       70.36       70.00    
  10    70.00       70.82       71.62       72.38       73.10       73.76       74.36       74.90       75.38       75.79    
        76.13       76.42       76.64       76.82       76.95       77.05       77.11       77.14       77.13       77.10    
        77.03       76.95       76.84       76.72       76.58       76.43       76.26       76.09       75.91       75.71    
        75.51       75.30       75.09       74.86       74.63       74.39       74.14       73.88       73.61       73.33    
        73.04       72.74       72.43       72.11       71.78       71.44       71.09       70.73       70.37       70.00    
  11    70.00       70.90       71.77       72.60       73.37       74.08       74.72       75.29       75.78       76.19    
        76.54       76.81       77.02       77.17       77.28       77.37       77.42       77.43       77.41       77.35    
        77.27       77.17       77.04       76.90       76.74       76.58       76.40       76.22       76.02       75.82    
        75.62       75.40       75.18       74.95       74.72       74.48       74.22       73.96       73.69       73.41    
        73.12       72.81       72.50       72.17       71.83       71.48       71.12       70.75       70.38       70.00    
  12    70.00       70.99       71.95       72.86       73.70       74.46       75.14       75.74       76.24       76.67    
        77.01       77.27       77.46       77.57       77.63       77.72       77.76       77.76       77.71       77.63    
        77.53       77.40       77.25       77.09       76.92       76.74       76.55       76.35       76.15       75.94    
        75.73       75.51       75.28       75.05       74.82       74.57       74.32       74.06       73.78       73.50    
        73.20       72.90       72.58       72.24       71.89       71.54       71.16       70.78       70.39       70.00    
  13    70.00       71.11       72.17       73.17       74.09       74.91       75.64       76.26       76.79       77.22    
        77.55       77.80       77.96       78.02       77.95       78.11       78.15       78.12       78.05       77.94    
        77.81       77.65       77.48       77.30       77.10       76.90       76.70       76.49       76.28       76.06    
        75.84       75.62       75.39       75.16       74.92       74.67       74.42       74.16       73.88       73.60    
        73.30       72.99       72.67       72.33       71.97       71.60       71.21       70.82       70.41       70.00    
  14    70.00       71.25       72.44       73.55       74.56       75.45       76.23       76.88       77.42       77.85    
        78.17       78.41       78.55       78.61       78.61       78.63       78.60       78.53       78.42       78.28    
        78.11       77.92       77.72       77.51       77.30       77.08       76.85       76.63       76.41       76.18    
        75.96       75.73       75.50       75.27       75.03       74.78       74.53       74.27       74.00       73.71    
        73.41       73.10       72.77       72.42       72.06       71.67       71.27       70.86       70.43       70.00    
  15    70.00       71.42       72.77       74.01       75.12       76.09       76.92       77.60       78.15       78.58    
        78.89       79.09       79.21       79.25       79.24       79.19       79.10       78.98       78.82       78.63    
        78.42       78.20       77.97       77.73       77.49       77.25       77.01       76.77       76.54       76.31    
        76.08       75.85       75.62       75.38       75.14       74.90       74.65       74.39       74.12       73.84    
        73.54       73.22       72.89       72.53       72.16       71.76       71.35       70.91       70.46       70.00    
  16    70.00       71.64       73.17       74.57       75.81       76.86       77.74       78.45       79.00       79.41    
        79.69       79.86       79.94       79.95       79.89       79.78       79.64       79.45       79.24       79.01    
        78.75       78.49       78.22       77.95       77.68       77.42       77.16       76.91       76.67       76.43    
        76.19       75.96       75.73       75.50       75.26       75.02       74.78       74.52       74.25       73.97    
        73.68       73.36       73.03       72.67       72.28       71.87       71.43       70.97       70.49       70.00    
  17    70.00       71.91       73.69       75.28       76.65       77.79       78.71       79.43       79.97       80.35    
        80.59       80.72       80.75       80.69       80.58       80.41       80.20       79.96       79.69       79.40    
        79.09       78.78       78.47       78.16       77.86       77.58       77.30       77.04       76.79       76.54    
        76.31       76.08       75.85       75.62       75.39       75.15       74.91       74.66       74.40       74.12    
        73.83       73.52       73.18       72.82       72.43       72.00       71.54       71.05       70.53       70.00    
  18    70.00       72.26       74.34       76.16       77.68       78.91       79.86       80.58       81.08       81.41    
        81.60       81.66       81.62       81.50       81.31       81.07       80.79       80.48       80.15       79.80    
        79.44       79.07       78.72       78.37       78.04       77.72       77.43       77.16       76.90       76.65    
        76.42       76.19       75.96       75.74       75.52       75.29       75.05       74.81       74.56       74.29    
        74.01       73.70       73.37       73.01       72.60       72.16       71.68       71.15       70.59       70.00    
  19    70.00       72.74       75.20       77.28       78.96       80.26       81.22       81.90       82.35       82.61    
        82.71       82.69       82.56       82.36       82.09       81.77       81.41       81.03       80.62       80.20    
        79.78       79.36       78.95       78.56       78.19       77.85       77.54       77.26       76.99       76.75    
        76.52       76.29       76.08       75.86       75.65       75.43       75.20       74.97       74.73       74.47    
        74.20       73.91       73.58       73.22       72.82       72.36       71.85       71.28       70.66       70.00    
  20    70.00       73.39       76.34       78.73       80.56       81.90       82.83       83.43       83.79       83.94    
        83.93       83.80       83.57       83.27       82.91       82.50       82.06       81.59       81.11       80.61    
        80.11       79.62       79.16       78.72       78.31       77.95       77.63       77.34       77.07       76.83    
        76.61       76.39       76.19       75.98       75.78       75.57       75.36       75.14       74.91       74.67    
        74.42       74.14       73.83       73.48       73.08       72.62       72.08       71.46       70.76       70.00    
  21    70.00       74.34       77.93       80.65       82.59       83.89       84.72       85.18       85.39       85.40    
        85.25       84.99       84.65       84.23       83.76       83.25       82.71       82.16       81.59       81.02    
        80.43       79.87       79.33       78.84       78.39       78.01       77.67       77.38       77.13       76.90    
        76.69       76.49       76.29       76.10       75.91       75.72       75.52       75.31       75.09       74.88    
        74.66       74.41       74.12       73.79       73.40       72.94       72.38       71.71       70.90       70.00    
  22    70.00       75.79       80.21       83.22       85.14       86.28       86.90       87.16       87.16       86.98    
        86.67       86.25       85.77       85.23       84.64       84.02       83.38       82.73       82.07       81.40    
        80.73       80.08       79.47       78.90       78.41       78.01       77.68       77.40       77.16       76.95    
        76.75       76.57       76.40       76.22       76.05       75.88       75.69       75.49       75.26       75.11    
        74.92       74.70       74.45       74.15       73.80       73.36       72.80       72.08       71.14       70.00    
  23    70.00       78.18       83.62       86.70       88.34       89.12       89.38       89.33       89.07       88.66    
        88.15       87.57       86.93       86.25       85.54       84.80       84.05       83.30       82.53       81.76    
        81.00       80.26       79.55       78.90       78.34       77.93       77.62       77.37       77.16       76.98    
        76.81       76.65       76.50       76.34       76.19       76.04       75.88       75.71       75.54       75.39    
        75.22       75.03       74.82       74.57       74.27       73.89       73.38       72.65       71.56       70.00    
  24    70.00       82.49       88.90       91.37       92.22       92.35       92.11       91.66       91.08       90.41    
        89.68       88.91       88.11       87.28       86.44       85.59       84.72       83.86       82.98       82.11    
        81.24       80.39       79.56       78.78       78.13       77.76       77.50       77.31       77.14       76.99    
        76.85       76.72       76.59       76.46       76.33       76.21       76.07       75.94       75.80       75.67    
        75.53       75.38       75.22       75.03       74.81       74.54       74.16       73.56       72.43       70.00    
  25    70.00       91.03       97.34       97.32       96.65       95.84       94.96       94.06       93.12       92.18    
        91.22       90.26       89.29       88.32       87.35       86.37       85.39       84.41       83.43       82.45    
        81.47       80.49       79.51       78.54       77.63       77.45       77.33       77.21       77.11       77.00    
        76.89       76.79       76.69       76.58       76.48       76.37       76.27       76.17       76.06       75.96    
        75.85       75.75       75.64       75.53       75.41       75.29       75.15       74.97       74.51       70.00    
  26    70.00       82.49       88.91       91.37       92.23       92.35       92.11       91.66       91.08       90.41    
        89.68       88.91       88.11       87.29       86.45       85.59       84.73       83.85       82.98       82.11    
        81.24       80.39       79.56       78.78       78.13       77.75       77.50       77.31       77.14       76.99    
        76.85       76.72       76.59       76.46       76.34       76.21       76.08       75.95       75.82       75.68    
        75.54       75.39       75.22       75.03       74.81       74.54       74.16       73.55       72.42       70.00    
  27    70.00       78.18       83.62       86.71       88.34       89.12       89.39       89.34       89.07       88.67    
        88.16       87.58       86.94       86.26       85.54       84.81       84.06       83.29       82.52       81.75    
        81.00       80.25       79.55       78.90       78.34       77.93       77.62       77.37       77.16       76.98    
        76.81       76.65       76.49       76.35       76.20       76.05       75.90       75.74       75.58       75.42    
        75.24       75.04       74.82       74.57       74.27       73.88       73.37       72.65       71.56       70.00    
  28    70.00       75.79       80.22       83.23       85.14       86.29       86.91       87.17       87.17       86.99    
        86.68       86.27       85.78       85.24       84.65       84.03       83.39       82.73       82.06       81.39    
        80.72       80.08       79.47       78.90       78.41       78.00       77.67       77.39       77.16       76.94    
        76.75       76.57       76.40       76.23       76.06       75.89       75.72       75.54       75.36       75.16    
        74.95       74.72       74.46       74.15       73.80       73.36       72.80       72.08       71.14       70.00    
  29    70.00       74.34       77.94       80.66       82.59       83.90       84.73       85.20       85.40       85.41    
        85.27       85.01       84.66       84.25       83.78       83.27       82.72       82.16       81.58       81.00    
        80.43       79.87       79.33       78.83       78.39       78.00       77.67       77.38       77.12       76.89    
        76.68       76.48       76.29       76.10       75.92       75.73       75.54       75.34       75.14       74.92    
        74.68       74.42       74.13       73.79       73.41       72.94       72.38       71.71       70.90       70.00    
  30    70.00       73.39       76.35       78.74       80.57       81.91       82.84       83.45       83.80       83.96    
        83.95       83.83       83.60       83.30       82.93       82.52       82.07       81.60       81.11       80.61    
        80.11       79.62       79.15       78.71       78.31       77.94       77.62       77.33       77.06       76.82    
        76.60       76.39       76.18       75.98       75.78       75.58       75.37       75.16       74.93       74.69    
        74.44       74.15       73.84       73.49       73.08       72.62       72.08       71.46       70.76       70.00    
  31    70.00       72.74       75.20       77.29       78.97       80.27       81.24       81.92       82.37       82.63    
        82.74       82.72       82.60       82.40       82.13       81.80       81.44       81.05       80.64       80.21    
        79.78       79.36       78.95       78.55       78.18       77.84       77.53       77.25       76.98       76.74    
        76.51       76.28       76.07       75.86       75.64       75.43       75.21       74.98       74.74       74.49    
        74.21       73.91       73.59       73.23       72.82       72.36       71.85       71.28       70.66       70.00    
  32    70.00       72.27       74.35       76.16       77.69       78.92       79.88       80.60       81.11       81.45    
        81.63       81.70       81.67       81.55       81.36       81.12       80.83       80.51       80.17       79.81    
        79.45       79.08       78.72       78.36       78.03       77.72       77.42       77.14       76.88       76.64    
        76.40       76.17       75.95       75.73       75.51       75.28       75.05       74.81       74.56       74.30    
        74.01       73.70       73.37       73.01       72.60       72.16       71.68       71.15       70.59       70.00    
  33    70.00       71.91       73.69       75.28       76.66       77.80       78.73       79.46       80.00       80.39    
        80.64       80.77       80.81       80.76       80.64       80.47       80.25       80.00       79.72       79.42    
        79.11       78.79       78.47       78.16       77.86       77.57       77.29       77.02       76.77       76.53    
        76.29       76.06       75.83       75.60       75.38       75.14       74.90       74.66       74.40       74.12    
        73.83       73.52       73.18       72.82       72.43       72.00       71.54       71.05       70.53       70.00    
  34    70.00       71.64       73.18       74.58       75.82       76.88       77.76       78.47       79.03       79.45    
        79.74       79.93       80.02       80.03       79.97       79.86       79.70       79.51       79.28       79.03    
        78.77       78.50       78.22       77.94       77.67       77.40       77.14       76.89       76.64       76.41    
        76.17       75.94       75.71       75.48       75.25       75.01       74.76       74.51       74.24       73.96    
        73.67       73.35       73.02       72.66       72.28       71.87       71.43       70.97       70.49       70.00    
  35    70.00       71.42       72.77       74.02       75.13       76.11       76.94       77.63       78.19       78.62    
        78.94       79.17       79.30       79.36       79.36       79.29       79.19       79.04       78.86       78.66    
        78.44       78.21       77.96       77.72       77.47       77.23       76.99       76.75       76.51       76.28    
        76.05       75.82       75.59       75.36       75.12       74.88       74.63       74.37       74.10       73.82    
        73.52       73.21       72.88       72.53       72.15       71.76       71.34       70.91       70.46       70.00    
  36    70.00       71.25       72.44       73.56       74.57       75.47       76.25       76.91       77.46       77.90    
        78.24       78.49       78.66       78.75       78.79       78.77       78.70       78.60       78.46       78.30    
        78.12       77.92       77.71       77.50       77.27       77.05       76.82       76.60       76.37       76.15    
        75.92       75.70       75.47       75.24       75.00       74.76       74.51       74.25       73.98       73.69    
        73.40       73.08       72.76       72.41       72.05       71.66       71.27       70.85       70.43       70.00    
  37    70.00       71.11       72.17       73.18       74.10       74.92       75.65       76.29       76.82       77.26    
        77.61       77.88       78.07       78.20       78.27       78.29       78.26       78.19       78.09       77.96    
        77.82       77.65       77.47       77.28       77.08       76.87       76.66       76.45       76.24       76.02    
        75.80       75.58       75.35       75.12       74.88       74.64       74.39       74.13       73.86       73.58    
        73.28       72.97       72.65       72.31       71.96       71.59       71.21       70.81       70.41       70.00    
  38    70.00       70.99       71.95       72.86       73.70       74.47       75.15       75.75       76.27       76.70    
        77.06       77.34       77.55       77.71       77.80       77.85       77.85       77.81       77.74       77.65    
        77.53       77.39       77.23       77.06       76.89       76.70       76.50       76.31       76.10       75.89    
        75.68       75.46       75.24       75.01       74.77       74.53       74.28       74.02       73.75       73.47    
        73.18       72.87       72.55       72.22       71.88       71.52       71.15       70.78       70.39       70.00    
  39    70.00       70.90       71.77       72.60       73.37       74.08       74.72       75.30       75.79       76.22    
        76.57       76.86       77.09       77.26       77.38       77.45       77.47       77.46       77.42       77.35    
        77.26       77.14       77.01       76.86       76.70       76.53       76.35       76.16       75.97       75.77    
        75.56       75.35       75.13       74.90       74.67       74.43       74.18       73.92       73.65       73.38    
        73.09       72.79       72.47       72.15       71.81       71.47       71.11       70.75       70.38       70.00    
  40    70.00       70.82       71.62       72.38       73.09       73.76       74.36       74.90       75.38       75.80    
        76.15       76.44       76.68       76.86       77.00       77.09       77.14       77.15       77.13       77.08    
        77.01       76.91       76.80       76.67       76.53       76.37       76.20       76.03       75.84       75.65    
        75.45       75.24       75.03       74.80       74.57       74.34       74.09       73.83       73.57       73.29    
        73.00       72.71       72.40       72.08       71.76       71.42       71.07       70.72       70.36       70.00    
  41    70.00       70.75       71.49       72.19       72.86       73.48       74.05       74.57       75.03       75.43    
        75.78       76.08       76.32       76.51       76.66       76.77       76.83       76.86       76.86       76.83    
        76.78       76.70       76.61       76.49       76.36       76.22       76.06       75.90       75.72       75.54    
        75.34       75.14       74.93       74.71       74.49       74.25       74.00       73.75       73.49       73.22    
        72.93       72.64       72.34       72.03       71.71       71.38       71.04       70.70       70.35       70.00    
  42    70.00       70.70       71.38       72.04       72.66       73.25       73.79       74.28       74.73       75.12    
        75.46       75.76       76.01       76.21       76.36       76.48       76.56       76.61       76.62       76.61    
        76.57       76.51       76.43       76.33       76.21       76.08       75.94       75.78       75.61       75.43    
        75.25       75.05       74.84       74.63       74.40       74.17       73.93       73.68       73.42       73.15    
        72.87       72.58       72.28       71.98       71.66       71.34       71.01       70.68       70.34       70.00    
  43    70.00       70.65       71.29       71.91       72.50       73.05       73.57       74.04       74.47       74.85    
        75.19       75.49       75.73       75.94       76.11       76.23       76.32       76.38       76.41       76.41    
        76.39       76.34       76.27       76.18       76.08       75.95       75.82       75.67       75.51       75.34    
        75.16       74.96       74.76       74.55       74.33       74.10       73.86       73.61       73.36       73.09    
        72.81       72.53       72.24       71.94       71.63       71.31       70.99       70.66       70.33       70.00    
  44    70.00       70.62       71.22       71.80       72.36       72.89       73.38       73.84       74.25       74.63    
        74.96       75.25       75.50       75.71       75.88       76.02       76.12       76.19       76.23       76.24    
        76.22       76.19       76.13       76.05       75.95       75.84       75.71       75.57       75.42       75.25    
        75.08       74.89       74.69       74.48       74.27       74.04       73.80       73.56       73.30       73.04    
        72.77       72.48       72.20       71.90       71.60       71.29       70.97       70.65       70.33       70.00    
  45    70.00       70.59       71.16       71.72       72.25       72.76       73.23       73.67       74.07       74.44    
        74.77       75.06       75.31       75.52       75.70       75.84       75.94       76.02       76.07       76.09    
        76.08       76.06       76.01       75.94       75.85       75.74       75.62       75.49       75.34       75.18    
        75.01       74.82       74.63       74.42       74.21       73.98       73.75       73.51       73.26       72.99    
        72.72       72.45       72.16       71.87       71.57       71.26       70.95       70.64       70.32       70.00    
  46    70.00       70.56       71.11       71.65       72.16       72.65       73.11       73.54       73.93       74.29    
        74.61       74.90       75.15       75.36       75.54       75.69       75.80       75.88       75.94       75.96    
        75.97       75.95       75.90       75.84       75.76       75.66       75.55       75.42       75.27       75.12    
        74.95       74.77       74.58       74.37       74.16       73.94       73.71       73.47       73.22       72.96    
        72.69       72.42       72.13       71.84       71.55       71.25       70.94       70.63       70.32       70.00    
  47    70.00       70.54       71.08       71.59       72.09       72.56       73.01       73.43       73.82       74.17    
        74.49       74.77       75.02       75.24       75.42       75.57       75.68       75.77       75.83       75.87    
        75.87       75.86       75.82       75.77       75.69       75.60       75.49       75.36       75.22       75.07    
        74.90       74.72       74.53       74.33       74.12       73.90       73.67       73.43       73.19       72.93    
        72.66       72.39       72.11       71.83       71.53       71.23       70.93       70.62       70.31       70.00    
  48    70.00       70.53       71.05       71.55       72.04       72.50       72.94       73.35       73.73       74.08    
        74.40       74.68       74.93       75.15       75.33       75.48       75.60       75.69       75.75       75.79    
        75.80       75.79       75.76       75.71       75.64       75.55       75.44       75.32       75.18       75.03    
        74.87       74.69       74.50       74.30       74.10       73.88       73.65       73.41       73.16       72.91    
        72.65       72.37       72.10       71.81       71.52       71.22       70.92       70.62       70.31       70.00    
  49    70.00       70.52       71.03       71.53       72.01       72.46       72.90       73.30       73.68       74.03    
        74.34       74.62       74.87       75.09       75.27       75.42       75.54       75.64       75.70       75.74    
        75.76       75.75       75.72       75.67       75.60       75.51       75.41       75.29       75.15       75.00    
        74.84       74.67       74.48       74.28       74.08       73.86       73.63       73.39       73.15       72.89    
        72.63       72.36       72.08       71.80       71.51       71.22       70.92       70.61       70.31       70.00    
  50    70.00       70.52       71.02       71.51       71.99       72.44       72.87       73.28       73.65       74.00    
        74.31       74.59       74.84       75.06       75.24       75.39       75.51       75.61       75.68       75.72    
        75.73       75.73       75.70       75.65       75.58       75.50       75.39       75.27       75.14       74.99    
        74.83       74.66       74.47       74.27       74.07       73.85       73.62       73.39       73.14       72.89    
        72.63       72.36       72.08       71.80       71.51       71.21       70.92       70.61       70.31       70.00    
1
              HEAD IN LAYER   2 AT END OF TIME STEP   1 IN STRESS PERIOD    1
  ---------------------------------------------------------------------------

            1           2           3           4           5           6           7           8           9          10
           11          12          13          14          15          16          17          18          19          20
           21          22          23          24          25          26          27          28          29          30
           31          32          33          34          35          36          37          38          39          40
           41          42          43          44          45          46          47          48          49          50
 ........................................................................................................................
   1    70.00       70.55       71.08       71.60       72.11       72.58       73.04       73.46       73.85       74.21    
        74.53       74.82       75.08       75.30       75.48       75.63       75.76       75.85       75.91       75.95    
        75.97       75.95       75.92       75.87       75.79       75.70       75.59       75.46       75.32       75.17    
        75.00       74.82       74.63       74.42       74.21       73.98       73.75       73.50       73.25       72.99    
        72.72       72.44       72.15       71.86       71.56       71.26       70.95       70.64       70.32       70.00    
   2    70.00       70.55       71.09       71.62       72.12       72.61       73.06       73.49       73.88       74.24    
        74.56       74.85       75.11       75.33       75.51       75.66       75.79       75.88       75.94       75.98    
        75.99       75.98       75.94       75.89       75.81       75.72       75.60       75.48       75.34       75.18    
        75.01       74.83       74.64       74.43       74.22       73.99       73.76       73.51       73.26       73.00    
        72.73       72.45       72.16       71.87       71.57       71.26       70.95       70.64       70.32       70.00    
   3    70.00       70.56       71.11       71.65       72.16       72.65       73.11       73.54       73.94       74.30    
        74.63       74.92       75.17       75.39       75.58       75.73       75.84       75.93       75.99       76.03    
        76.04       76.02       75.98       75.92       75.85       75.75       75.64       75.51       75.36       75.21    
        75.04       74.85       74.66       74.45       74.24       74.01       73.78       73.53       73.27       73.01    
        72.74       72.46       72.17       71.88       71.58       71.27       70.96       70.64       70.32       70.00    
   4    70.00       70.58       71.14       71.69       72.22       72.72       73.19       73.63       74.03       74.40    
        74.73       75.02       75.27       75.49       75.67       75.82       75.93       76.02       76.07       76.10    
        76.11       76.09       76.05       75.98       75.90       75.80       75.68       75.55       75.40       75.24    
        75.07       74.89       74.69       74.48       74.27       74.04       73.80       73.55       73.30       73.03    
        72.76       72.48       72.19       71.89       71.59       71.28       70.97       70.65       70.32       70.00    
   5    70.00       70.60       71.19       71.75       72.30       72.81       73.30       73.74       74.16       74.53    
        74.86       75.15       75.40       75.62       75.80       75.94       76.05       76.13       76.18       76.21    
        76.20       76.18       76.13       76.06       75.97       75.87       75.75       75.61       75.46       75.30    
        75.12       74.93       74.73       74.52       74.30       74.08       73.84       73.59       73.33       73.06    
        72.79       72.50       72.21       71.91       71.61       71.29       70.98       70.65       70.33       70.00    
   6    70.00       70.63       71.24       71.83       72.40       72.93       73.43       73.90       74.32       74.69    
        75.03       75.32       75.57       75.78       75.96       76.10       76.20       76.27       76.32       76.33    
        76.32       76.29       76.23       76.16       76.06       75.95       75.82       75.68       75.53       75.36    
        75.18       74.99       74.79       74.57       74.35       74.12       73.88       73.63       73.37       73.10    
        72.82       72.54       72.24       71.94       71.63       71.31       70.99       70.66       70.33       70.00    
   7    70.00       70.66       71.31       71.93       72.53       73.09       73.61       74.08       74.51       74.90    
        75.24       75.53       75.78       75.99       76.15       76.28       76.38       76.44       76.48       76.49    
        76.47       76.42       76.36       76.27       76.17       76.05       75.91       75.77       75.60       75.43    
        75.25       75.05       74.85       74.63       74.41       74.17       73.93       73.68       73.42       73.15    
        72.87       72.58       72.28       71.97       71.66       71.34       71.01       70.68       70.34       70.00    
   8    70.00       70.71       71.39       72.05       72.68       73.27       73.81       74.31       74.75       75.15    
        75.49       75.78       76.02       76.22       76.38       76.50       76.59       76.64       76.67       76.66    
        76.63       76.58       76.50       76.40       76.29       76.16       76.02       75.86       75.69       75.52    
        75.33       75.13       74.92       74.70       74.47       74.24       73.99       73.74       73.47       73.20    
        72.92       72.62       72.32       72.01       71.69       71.36       71.03       70.69       70.35       70.00    
   9    70.00       70.76       71.50       72.20       72.87       73.49       74.06       74.58       75.04       75.44    
        75.79       76.07       76.31       76.50       76.65       76.76       76.83       76.87       76.89       76.87    
        76.82       76.75       76.66       76.55       76.43       76.29       76.14       75.97       75.80       75.61    
        75.42       75.21       75.00       74.78       74.55       74.31       74.06       73.80       73.54       73.26    
        72.97       72.68       72.37       72.06       71.73       71.40       71.06       70.71       70.36       70.00    
  10    70.00       70.82       71.62       72.38       73.10       73.76       74.36       74.90       75.38       75.79    
        76.13       76.42       76.64       76.82       76.95       77.05       77.11       77.14       77.13       77.10    
        77.03       76.95       76.84       76.72       76.58       76.43       76.26       76.09       75.91       75.71    
        75.51       75.30       75.09       74.86       74.63       74.39       74.14       73.88       73.61       73.33    
        73.04       72.74       72.43       72.11       71.78       71.44       71.09       70.73       70.37       70.00    
  11    70.00       70.90       71.77       72.60       73.37       74.08       74.72       75.29       75.78       76.19    
        76.54       76.81       77.02       77.17       77.28       77.37       77.42       77.43       77.41       77.35    
        77.27       77.17       77.04       76.90       76.74       76.58       76.40       76.22       76.02       75.82    
        75.62       75.40       75.18       74.95       74.72       74.48       74.22       73.96       73.69       73.41    
        73.12       72.81       72.50       72.17       71.83       71.48       71.12       70.75       70.38       70.00    
  12    70.00       70.99       71.95       72.86       73.70       74.46       75.14       75.74       76.24       76.67    
        77.01       77.27       77.46       77.57       77.63       77.72       77.76       77.76       77.71       77.63    
        77.53       77.40       77.25       77.09       76.92       76.74       76.55       76.35       76.15       75.94    
        75.73       75.51       75.28       75.05       74.82       74.57       74.32       74.06       73.78       73.50    
        73.20       72.90       72.58       72.24       71.89       71.54       71.16       70.78       70.39       70.00    
  13    70.00       71.11       72.17       73.17       74.09       74.91       75.64       76.26       76.79       77.22    
        77.55       77.80       77.96       78.02       77.95       78.11       78.15       78.12       78.05       77.94    
        77.81       77.65       77.48       77.30       77.10       76.90       76.70       76.49       76.28       76.06    
        75.84       75.62       75.39       75.16       74.92       74.67       74.42       74.16       73.88       73.60    
        73.30       72.99       72.67       72.33       71.97       71.60       71.21       70.82       70.41       70.00    
  14    70.00       71.25       72.44       73.55       74.56       75.45       76.23       76.88       77.42       77.85    
        78.17       78.41       78.55       78.61       78.61       78.63       78.60       78.53       78.42       78.28    
        78.11       77.92       77.72       77.51       77.30       77.08       76.85       76.63       76.41       76.18    
        75.96       75.73       75.50       75.27       75.03       74.78       74.53       74.27       74.00       73.71    
        73.41       73.10       72.77       72.42       72.06       71.67       71.27       70.86       70.43       70.00    
  15    70.00       71.42       72.77       74.01       75.12       76.09       76.92       77.60       78.15       78.58    
        78.89       79.09       79.21       79.25       79.24       79.19       79.10       78.98       78.82       78.63    
        78.42       78.20       77.97       77.73       77.49       77.25       77.01       76.77       76.54       76.31    
        76.08       75.85       75.62       75.38       75.14       74.90       74.65       74.39       74.12       73.84    
        73.54       73.22       72.89       72.53       72.16       71.76       71.35       70.91       70.46       70.00    
  16    70.00       71.63       73.17       74.57       75.81       76.86       77.74       78.45       79.00       79.41    
        79.69       79.86       79.94       79.95       79.89       79.78       79.64       79.45       79.24       79.01    
        78.75       78.49       78.22       77.95       77.68       77.42       77.16       76.91       76.67       76.43    
        76.19       75.96       75.73       75.50       75.26       75.02       74.78       74.52       74.25       73.97    
        73.68       73.36       73.03       72.67       72.28       71.87       71.43       70.97       70.49       70.00    
  17    70.00       71.91       73.69       75.28       76.65       77.79       78.71       79.43       79.97       80.35    
        80.59       80.72       80.75       80.69       80.58       80.41       80.20       79.96       79.69       79.40    
        79.09       78.78       78.47       78.16       77.86       77.58       77.30       77.04       76.79       76.54    
        76.31       76.08       75.85       75.62       75.39       75.15       74.91       74.66       74.40       74.12    
        73.83       73.52       73.18       72.82       72.43       72.00       71.54       71.05       70.53       70.00    
  18    70.00       72.26       74.34       76.16       77.68       78.91       79.86       80.58       81.08       81.41    
        81.60       81.66       81.62       81.50       81.31       81.07       80.79       80.48       80.15       79.80    
        79.44       79.07       78.72       78.37       78.04       77.72       77.43       77.16       76.90       76.65    
        76.42       76.19       75.96       75.74       75.52       75.29       75.05       74.81       74.56       74.29    
        74.01       73.70       73.37       73.01       72.60       72.16       71.68       71.15       70.59       70.00    
  19    70.00       72.74       75.20       77.28       78.96       80.26       81.22       81.90       82.35       82.61    
        82.71       82.69       82.56       82.36       82.09       81.77       81.41       81.03       80.62       80.20    
        79.78       79.36       78.95       78.56       78.19       77.85       77.54       77.26       76.99       76.75    
        76.52       76.29       76.08       75.86       75.65       75.43       75.20       74.97       74.73       74.47    
        74.20       73.91       73.58       73.22       72.82       72.36       71.85       71.28       70.66       70.00    
  20    70.00       73.39       76.34       78.73       80.56       81.90       82.83       83.43       83.79       83.94    
        83.93       83.80       83.57       83.27       82.91       82.50       82.06       81.59       81.11       80.61    
        80.11       79.62       79.16       78.72       78.31       77.95       77.63       77.34       77.07       76.83    
        76.61       76.39       76.19       75.98       75.78       75.57       75.36       75.14       74.91       74.67    
        74.42       74.14       73.83       73.48       73.08       72.62       72.08       71.46       70.76       70.00    
  21    70.00       74.34       77.93       80.65       82.59       83.89       84.72       85.18       85.39       85.40    
        85.25       84.99       84.65       84.23       83.76       83.25       82.71       82.16       81.59       81.02    
        80.43       79.87       79.33       78.84       78.39       78.01       77.67       77.38       77.13       76.90    
        76.69       76.49       76.29       76.10       75.91       75.72       75.52       75.31       75.09       74.88    
        74.66       74.41       74.12       73.79       73.40       72.94       72.38       71.71       70.90       70.00    
  22    70.00       75.79       80.21       83.22       85.14       86.28       86.90       87.16       87.16       86.98    
        86.67       86.25       85.77       85.23       84.64       84.02       83.38       82.73       82.07       81.40    
        80.73       80.08       79.47       78.90       78.41       78.01       77.68       77.40       77.16       76.95    
        76.75       76.57       76.40       76.22       76.05       75.88       75.69       75.49       75.26       75.11    
        74.92       74.70       74.45       74.15       73.80       73.36       72.80       72.08       71.14       70.00    
  23    70.00       78.18       83.62       86.70       88.34       89.12       89.38       89.33       89.07       88.66    
        88.15       87.57       86.93       86.25       85.54       84.80       84.05       83.30       82.53       81.76    
        81.00       80.26       79.55       78.90       78.34       77.93       77.62       77.37       77.16       76.98    
        76.81       76.65       76.50       76.34       76.19       76.04       75.88       75.71       75.54       75.39    
        75.22       75.03       74.82       74.57       74.27       73.89       73.38       72.65       71.56       70.00    
  24    70.00       82.49       88.90       91.37       92.22       92.35       92.11       91.66       91.08       90.41    
        89.68       88.91       88.11       87.28       86.44       85.59       84.72       83.86       82.98       82.11    
        81.24       80.39       79.56       78.78       78.13       77.76       77.50       77.31       77.14       76.99    
        76.85       76.72       76.59       76.46       76.33       76.21       76.07       75.94       75.80       75.67    
        75.53       75.38       75.22       75.03       74.81       74.54       74.16       73.56       72.43       70.00    
  25    70.00       90.99       97.31       97.30       96.64       95.83       94.96       94.05       93.12       92.17    
        91.22       90.26       89.29       88.32       87.34       86.37       85.39       84.41       83.43       82.45    
        81.46       80.49       79.51       78.54       77.63       77.45       77.33       77.21       77.11       77.00    
        76.89       76.79       76.69       76.58       76.48       76.37       76.27       76.17       76.06       75.96    
        75.85       75.74       75.64       75.52       75.41       75.29       75.15       74.97       74.50       70.00    
  26    70.00       82.49       88.90       91.37       92.23       92.35       92.11       91.66       91.08       90.41    
        89.68       88.91       88.11       87.29       86.45       85.59       84.73       83.85       82.98       82.11    
        81.24       80.39       79.56       78.78       78.13       77.75       77.50       77.31       77.14       76.99    
        76.85       76.72       76.59       76.46       76.34       76.21       76.08       75.95       75.82       75.68    
        75.54       75.39       75.22       75.03       74.81       74.54       74.16       73.55       72.42       70.00    
  27    70.00       78.18       83.62       86.71       88.34       89.12       89.39       89.34       89.07       88.67    
        88.16       87.58       86.94       86.26       85.54       84.81       84.06       83.29       82.52       81.75    
        81.00       80.25       79.55       78.90       78.34       77.93       77.62       77.37       77.16       76.98    
        76.81       76.65       76.49       76.35       76.20       76.05       75.90       75.74       75.58       75.42    
        75.24       75.04       74.82       74.57       74.27       73.88       73.37       72.65       71.56       70.00    
  28    70.00       75.79       80.21       83.23       85.14       86.29       86.91       87.17       87.17       86.99    
        86.68       86.27       85.78       85.24       84.65       84.03       83.39       82.73       82.06       81.39    
        80.72       80.08       79.47       78.90       78.41       78.00       77.67       77.39       77.16       76.94    
        76.75       76.57       76.40       76.23       76.06       75.89       75.72       75.54       75.36       75.16    
        74.95       74.72       74.46       74.15       73.80       73.36       72.80       72.08       71.14       70.00    
  29    70.00       74.34       77.94       80.66       82.59       83.90       84.73       85.20       85.40       85.41    
        85.27       85.01       84.66       84.25       83.78       83.27       82.72       82.16       81.58       81.00    
        80.43       79.87       79.33       78.83       78.39       78.00       77.67       77.38       77.12       76.89    
        76.68       76.48       76.29       76.10       75.92       75.73       75.54       75.34       75.14       74.92    
        74.68       74.42       74.13       73.79       73.41       72.94       72.38       71.71       70.90       70.00    
  30    70.00       73.39       76.35       78.74       80.57       81.91       82.84       83.45       83.80       83.96    
        83.95       83.83       83.60       83.30       82.93       82.52       82.07       81.60       81.11       80.61    
        80.11       79.62       79.15       78.71       78.31       77.94       77.62       77.33       77.06       76.82    
        76.60       76.39       76.18       75.98       75.78       75.58       75.37       75.16       74.93       74.69    
        74.44       74.15       73.84       73.49       73.08       72.62       72.08       71.46       70.76       70.00    
  31    70.00       72.74       75.20       77.29       78.97       80.27       81.24       81.92       82.37       82.63    
        82.74       82.72       82.60       82.40       82.13       81.80       81.44       81.05       80.64       80.21    
        79.78       79.36       78.95       78.55       78.18       77.84       77.53       77.25       76.98       76.74    
        76.51       76.28       76.07       75.86       75.64       75.43       75.21       74.98       74.74       74.49    
        74.21       73.91       73.59       73.23       72.82       72.36       71.85       71.28       70.66       70.00    
  32    70.00       72.27       74.35       76.16       77.69       78.92       79.88       80.60       81.11       81.45    
        81.63       81.70       81.67       81.55       81.36       81.12       80.83       80.51       80.17       79.81    
        79.45       79.08       78.72       78.36       78.03       77.72       77.42       77.14       76.88       76.64    
        76.40       76.17       75.95       75.73       75.51       75.28       75.05       74.81       74.56       74.30    
        74.01       73.70       73.37       73.01       72.60       72.16       71.68       71.15       70.59       70.00    
  33    70.00       71.91       73.69       75.28       76.66       77.80       78.73       79.46       80.00       80.39    
        80.64       80.77       80.81       80.76       80.64       80.47       80.25       80.00       79.72       79.42    
        79.11       78.79       78.47       78.16       77.86       77.57       77.29       77.02       76.77       76.53    
        76.29       76.06       75.83       75.60       75.38       75.14       74.90       74.66       74.40       74.12    
        73.83       73.52       73.18       72.82       72.43       72.00       71.54       71.05       70.53       70.00    
  34    70.00       71.64       73.18       74.58       75.82       76.88       77.76       78.47       79.03       79.45    
        79.74       79.93       80.02       80.03       79.97       79.86       79.70       79.51       79.28       79.03    
        78.77       78.50       78.22       77.94       77.67       77.40       77.14       76.89       76.64       76.41    
        76.17       75.94       75.71       75.48       75.25       75.01       74.76       74.51       74.24       73.96    
        73.67       73.35       73.02       72.66       72.28       71.87       71.43       70.97       70.49       70.00    
  35    70.00       71.42       72.77       74.02       75.13       76.11       76.94       77.63       78.19       78.62    
        78.94       79.17       79.30       79.36       79.36       79.29       79.19       79.04       78.86       78.66    
        78.44       78.21       77.96       77.72       77.47       77.23       76.99       76.75       76.51       76.28    
        76.05       75.82       75.59       75.36       75.12       74.88       74.63       74.37       74.10       73.82    
        73.52       73.21       72.88       72.53       72.15       71.76       71.34       70.91       70.46       70.00    
  36    70.00       71.25       72.44       73.56       74.57       75.47       76.25       76.91       77.46       77.90    
        78.24       78.49       78.66       78.75       78.79       78.77       78.70       78.60       78.46       78.30    
        78.12       77.92       77.71       77.50       77.27       77.05       76.82       76.60       76.37       76.15    
        75.92       75.70       75.47       75.24       75.00       74.76       74.51       74.25       73.98       73.69    
        73.40       73.08       72.76       72.41       72.05       71.66       71.27       70.85       70.43       70.00    
  37    70.00       71.11       72.17       73.18       74.10       74.92       75.65       76.29       76.82       77.26    
        77.61       77.88       78.07       78.20       78.27       78.29       78.26       78.19       78.09       77.96    
        77.82       77.65       77.47       77.28       77.08       76.87       76.66       76.45       76.24       76.02    
        75.80       75.58       75.35       75.12       74.88       74.64       74.39       74.13       73.86       73.58    
        73.28       72.97       72.65       72.31       71.96       71.59       71.21       70.81       70.41       70.00    
  38    70.00       70.99       71.95       72.86       73.70       74.47       75.15       75.75       76.27       76.70    
        77.06       77.34       77.55       77.71       77.80       77.85       77.85       77.81       77.74       77.65    
        77.53       77.39       77.23       77.06       76.89       76.70       76.50       76.31       76.10       75.89    
        75.68       75.46       75.24       75.01       74.77       74.53       74.28       74.02       73.75       73.47    
        73.18       72.87       72.55       72.22       71.88       71.52       71.15       70.78       70.39       70.00    
  39    70.00       70.90       71.77       72.60       73.37       74.08       74.72       75.30       75.79       76.22    
        76.57       76.86       77.09       77.26       77.38       77.45       77.47       77.46       77.42       77.35    
        77.26       77.14       77.01       76.86       76.70       76.53       76.35       76.16       75.97       75.77    
        75.56       75.35       75.13       74.90       74.67       74.43       74.18       73.92       73.65       73.38    
        73.09       72.79       72.47       72.15       71.81       71.47       71.11       70.75       70.38       70.00    
  40    70.00       70.82       71.62       72.38       73.09       73.76       74.36       74.90       75.38       75.80    
        76.15       76.44       76.68       76.86       77.00       77.09       77.14       77.15       77.13       77.08    
        77.01       76.91       76.80       76.67       76.53       76.37       76.20       76.03       75.84       75.65    
        75.45       75.24       75.03       74.80       74.57       74.34       74.09       73.83       73.57       73.29    
        73.00       72.71       72.40       72.08       71.76       71.42       71.07       70.72       70.36       70.00    
  41    70.00       70.75       71.49       72.19       72.86       73.48       74.05       74.57       75.03       75.43    
        75.78       76.08       76.32       76.51       76.66       76.77       76.83       76.86       76.86       76.83    
        76.78       76.70       76.61       76.49       76.36       76.22       76.06       75.90       75.72       75.54    
        75.34       75.14       74.93       74.71       74.49       74.25       74.00       73.75       73.49       73.22    
        72.93       72.64       72.34       72.03       71.71       71.38       71.04       70.70       70.35       70.00    
  42    70.00       70.70       71.38       72.04       72.66       73.25       73.79       74.28       74.73       75.12    
        75.46       75.76       76.01       76.21       76.36       76.48       76.56       76.61       76.62       76.61    
        76.57       76.51       76.43       76.33       76.21       76.08       75.94       75.78       75.61       75.43    
        75.25       75.05       74.84       74.63       74.40       74.17       73.93       73.68       73.42       73.15    
        72.87       72.58       72.28       71.98       71.66       71.34       71.01       70.68       70.34       70.00    
  43    70.00       70.65       71.29       71.91       72.50       73.05       73.57       74.04       74.47       74.85    
        75.19       75.49       75.73       75.94       76.11       76.23       76.32       76.38       76.41       76.41    
        76.39       76.34       76.27       76.18       76.08       75.95       75.82       75.67       75.51       75.34    
        75.16       74.96       74.76       74.55       74.33       74.10       73.86       73.61       73.36       73.09    
        72.81       72.53       72.24       71.94       71.63       71.31       70.99       70.66       70.33       70.00    
  44    70.00       70.62       71.22       71.80       72.36       72.89       73.38       73.84       74.25       74.63    
        74.96       75.25       75.50       75.71       75.88       76.02       76.12       76.19       76.23       76.24    
        76.22       76.19       76.13       76.05       75.95       75.84       75.71       75.57       75.42       75.25    
        75.08       74.89       74.69       74.48       74.27       74.04       73.80       73.56       73.30       73.04    
        72.77       72.48       72.20       71.90       71.60       71.29       70.97       70.65       70.33       70.00    
  45    70.00       70.59       71.16       71.72       72.25       72.76       73.23       73.67       74.07       74.44    
        74.77       75.06       75.31       75.52       75.70       75.84       75.94       76.02       76.07       76.09    
        76.08       76.06       76.01       75.94       75.85       75.74       75.62       75.49       75.34       75.18    
        75.01       74.82       74.63       74.42       74.21       73.98       73.75       73.51       73.26       72.99    
        72.72       72.45       72.16       71.87       71.57       71.26       70.95       70.64       70.32       70.00    
  46    70.00       70.56       71.11       71.65       72.16       72.65       73.11       73.54       73.93       74.29    
        74.61       74.90       75.15       75.36       75.54       75.69       75.80       75.88       75.94       75.96    
        75.97       75.95       75.90       75.84       75.76       75.66       75.55       75.42       75.27       75.12    
        74.95       74.77       74.58       74.37       74.16       73.94       73.71       73.47       73.22       72.96    
        72.69       72.42       72.13       71.84       71.55       71.25       70.94       70.63       70.32       70.00    
  47    70.00       70.54       71.08       71.59       72.09       72.56       73.01       73.43       73.82       74.17    
        74.49       74.77       75.02       75.24       75.42       75.57       75.68       75.77       75.83       75.87    
        75.87       75.86       75.82       75.77       75.69       75.60       75.49       75.36       75.22       75.07    
        74.90       74.72       74.53       74.33       74.12       73.90       73.67       73.43       73.19       72.93    
        72.66       72.39       72.11       71.83       71.53       71.23       70.93       70.62       70.31       70.00    
  48    70.00       70.53       71.05       71.55       72.04       72.50       72.94       73.35       73.73       74.08    
        74.40       74.68       74.93       75.15       75.33       75.48       75.60       75.69       75.75       75.79    
        75.80       75.79       75.76       75.71       75.64       75.55       75.44       75.32       75.18       75.03    
        74.87       74.69       74.50       74.30       74.10       73.88       73.65       73.41       73.16       72.91    
        72.65       72.37       72.10       71.81       71.52       71.22       70.92       70.62       70.31       70.00    
  49    70.00       70.52       71.03       71.53       72.01       72.46       72.90       73.30       73.68       74.03    
        74.34       74.62       74.87       75.09       75.27       75.42       75.54       75.64       75.70       75.74    
        75.76       75.75       75.72       75.67       75.60       75.51       75.41       75.29       75.15       75.00    
        74.84       74.67       74.48       74.28       74.08       73.86       73.63       73.39       73.15       72.89    
        72.63       72.36       72.08       71.80       71.51       71.22       70.92       70.61       70.31       70.00    
  50    70.00       70.52       71.02       71.51       71.99       72.44       72.87       73.28       73.65       74.00    
        74.31       74.59       74.84       75.06       75.24       75.39       75.51       75.61       75.68       75.72    
        75.73       75.73       75.70       75.65       75.58       75.50       75.39       75.27       75.14       74.99    
        74.83       74.66       74.47       74.27       74.07       73.85       73.62       73.39       73.14       72.89    
        72.63       72.36       72.08       71.80       71.51       71.21       70.92       70.61       70.31       70.00    
1
              HEAD IN LAYER   3 AT END OF TIME STEP   1 IN STRESS PERIOD    1
  ---------------------------------------------------------------------------

            1           2           3           4           5           6           7           8           9          10
           11          12          13          14          15          16          17          18          19          20
           21          22          23          24          25          26          27          28          29          30
[...]
        81.00       80.26       79.55       78.90       78.34       77.93       77.62       77.37       77.16       76.98    
        76.81       76.65       76.50       76.34       76.19       76.04       75.88       75.71       75.54       75.39    
        75.22       75.03       74.82       74.57       74.27       73.89       73.38       72.65       71.56       70.00    
  24    70.00       82.49       88.90       91.37       92.22       92.35       92.11       91.66       91.08       90.41    
        89.68       88.91       88.11       87.28       86.44       85.59       84.72       83.86       82.98       82.11    
        81.24       80.39       79.56       78.78       78.13       77.76       77.50       77.31       77.14       76.99    
        76.85       76.72       76.59       76.46       76.33       76.21       76.07       75.94       75.80       75.67    
        75.53       75.38       75.22       75.03       74.81       74.54       74.16       73.56       72.42       70.00    
  25    70.00       90.97       97.29       97.29       96.63       95.82       94.95       94.04       93.12       92.17    
        91.22       90.25       89.29       88.32       87.34       86.36       85.39       84.41       83.43       82.44    
        81.46       80.49       79.51       78.54       77.64       77.46       77.33       77.21       77.11       77.00    
        76.89       76.79       76.69       76.58       76.48       76.37       76.27       76.17       76.06       75.96    
        75.85       75.74       75.64       75.52       75.41       75.28       75.15       74.96       74.49       70.00    
  26    70.00       82.49       88.90       91.37       92.22       92.35       92.11       91.66       91.08       90.41    
        89.68       88.91       88.11       87.29       86.45       85.59       84.73       83.85       82.98       82.11    
        81.24       80.39       79.56       78.78       78.13       77.75       77.50       77.31       77.14       76.99    
        76.85       76.72       76.59       76.46       76.34       76.21       76.08       75.95       75.82       75.68    
        75.54       75.39       75.22       75.03       74.81       74.54       74.16       73.55       72.42       70.00    
  27    70.00       78.18       83.62       86.71       88.34       89.12       89.39       89.34       89.07       88.67    
        88.16       87.58       86.94       86.26       85.54       84.81       84.06       83.29       82.52       81.75    
        81.00       80.25       79.55       78.90       78.34       77.93       77.62       77.37       77.16       76.98    
        76.81       76.65       76.49       76.35       76.20       76.05       75.90       75.74       75.58       75.42    
        75.24       75.04       74.82       74.57       74.27       73.88       73.37       72.65       71.56       70.00    
  28    70.00       75.79       80.21       83.23       85.14       86.29       86.91       87.17       87.17       86.99    
        86.68       86.27       85.78       85.24       84.65       84.03       83.39       82.73       82.06       81.39    
        80.72       80.08       79.47       78.90       78.41       78.00       77.67       77.39       77.16       76.94    
        76.75       76.57       76.40       76.23       76.06       75.89       75.72       75.54       75.36       75.16    
        74.95       74.72       74.46       74.15       73.80       73.36       72.80       72.08       71.14       70.00    
  29    70.00       74.34       77.94       80.66       82.59       83.90       84.73       85.20       85.40       85.41    
        85.27       85.01       84.66       84.25       83.78       83.27       82.72       82.16       81.58       81.00    
        80.43       79.87       79.33       78.83       78.39       78.00       77.67       77.38       77.12       76.89    
        76.68       76.48       76.29       76.10       75.92       75.73       75.54       75.34       75.14       74.92    
        74.68       74.42       74.13       73.79       73.41       72.94       72.38       71.71       70.90       70.00    
  30    70.00       73.39       76.35       78.74       80.57       81.91       82.84       83.45       83.80       83.96    
        83.95       83.83       83.60       83.30       82.93       82.52       82.07       81.60       81.11       80.61    
        80.11       79.62       79.15       78.71       78.31       77.94       77.62       77.33       77.06       76.82    
        76.60       76.39       76.18       75.98       75.78       75.58       75.37       75.16       74.93       74.69    
        74.44       74.15       73.84       73.49       73.08       72.62       72.08       71.46       70.76       70.00    
  31    70.00       72.74       75.20       77.29       78.97       80.27       81.24       81.92       82.37       82.63    
        82.74       82.72       82.60       82.40       82.13       81.80       81.44       81.05       80.64       80.21    
        79.78       79.36       78.95       78.55       78.18       77.84       77.53       77.25       76.98       76.74    
        76.51       76.28       76.07       75.86       75.64       75.43       75.21       74.98       74.74       74.49    
        74.21       73.91       73.59       73.23       72.82       72.36       71.85       71.28       70.66       70.00    
  32    70.00       72.27       74.35       76.16       77.69       78.92       79.88       80.60       81.11       81.45    
        81.63       81.70       81.67       81.55       81.36       81.12       80.83       80.51       80.17       79.81    
        79.45       79.08       78.72       78.36       78.03       77.72       77.42       77.14       76.88       76.64    
        76.40       76.17       75.95       75.73       75.51       75.28       75.05       74.81       74.56       74.30    
        74.01       73.70       73.37       73.01       72.60       72.16       71.68       71.15       70.59       70.00    
  33    70.00       71.91       73.69       75.28       76.66       77.80       78.73       79.46       80.00       80.39    
        80.64       80.77       80.81       80.76       80.64       80.47       80.25       80.00       79.72       79.42    
        79.11       78.79       78.47       78.16       77.86       77.57       77.29       77.02       76.77       76.53    
        76.29       76.06       75.83       75.60       75.38       75.14       74.90       74.66       74.40       74.12    
        73.83       73.52       73.18       72.82       72.43       72.00       71.54       71.05       70.53       70.00    
  34    70.00       71.64       73.18       74.58       75.82       76.88       77.76       78.47       79.03       79.45    
        79.74       79.93       80.02       80.03       79.97       79.86       79.70       79.51       79.28       79.03    
        78.77       78.50       78.22       77.94       77.67       77.40       77.14       76.89       76.64       76.41    
        76.17       75.94       75.71       75.48       75.25       75.01       74.76       74.51       74.24       73.96    
        73.67       73.35       73.02       72.66       72.28       71.87       71.43       70.97       70.49       70.00    
  35    70.00       71.42       72.77       74.02       75.13       76.11       76.94       77.63       78.19       78.62    
        78.94       79.17       79.30       79.36       79.36       79.29       79.19       79.04       78.86       78.66    
        78.44       78.21       77.96       77.72       77.47       77.23       76.99       76.75       76.51       76.28    
        76.05       75.82       75.59       75.36       75.12       74.88       74.63       74.37       74.10       73.82    
        73.52       73.21       72.88       72.53       72.15       71.76       71.34       70.91       70.46       70.00    
  36    70.00       71.25       72.44       73.56       74.57       75.47       76.25       76.91       77.46       77.90    
        78.24       78.49       78.66       78.75       78.79       78.77       78.70       78.60       78.46       78.30    
        78.12       77.92       77.71       77.50       77.27       77.05       76.82       76.60       76.37       76.15    
        75.92       75.70       75.47       75.24       75.00       74.76       74.51       74.25       73.98       73.69    
        73.40       73.08       72.76       72.41       72.05       71.66       71.27       70.85       70.43       70.00    
  37    70.00       71.11       72.17       73.18       74.10       74.92       75.65       76.29       76.82       77.26    
        77.61       77.88       78.07       78.20       78.27       78.29       78.26       78.19       78.09       77.96    
        77.82       77.65       77.47       77.28       77.08       76.87       76.66       76.45       76.24       76.02    
        75.80       75.58       75.35       75.12       74.88       74.64       74.39       74.13       73.86       73.58    
        73.28       72.97       72.65       72.31       71.96       71.59       71.21       70.81       70.41       70.00    
  38    70.00       70.99       71.95       72.86       73.70       74.47       75.15       75.75       76.27       76.70    
        77.06       77.34       77.55       77.71       77.80       77.85       77.85       77.81       77.74       77.65    
        77.53       77.39       77.23       77.06       76.89       76.70       76.50       76.31       76.10       75.89    
        75.68       75.46       75.24       75.01       74.77       74.53       74.28       74.02       73.75       73.47    
        73.18       72.87       72.55       72.22       71.88       71.52       71.15       70.78       70.39       70.00    
  39    70.00       70.90       71.77       72.60       73.37       74.08       74.72       75.30       75.79       76.22    
        76.57       76.86       77.09       77.26       77.38       77.45       77.47       77.46       77.42       77.35    
        77.26       77.14       77.01       76.86       76.70       76.53       76.35       76.16       75.97       75.77    
        75.56       75.35       75.13       74.90       74.67       74.43       74.18       73.92       73.65       73.38    
        73.09       72.79       72.47       72.15       71.81       71.47       71.11       70.75       70.38       70.00    
  40    70.00       70.82       71.62       72.38       73.09       73.76       74.36       74.90       75.38       75.80    
        76.15       76.44       76.68       76.86       77.00       77.09       77.14       77.15       77.13       77.08    
        77.01       76.91       76.80       76.67       76.53       76.37       76.20       76.03       75.84       75.65    
        75.45       75.24       75.03       74.80       74.57       74.34       74.09       73.83       73.57       73.29    
        73.00       72.71       72.40       72.08       71.76       71.42       71.07       70.72       70.36       70.00    
  41    70.00       70.75       71.49       72.19       72.86       73.48       74.05       74.57       75.03       75.43    
        75.78       76.08       76.32       76.51       76.66       76.77       76.83       76.86       76.86       76.83    
        76.78       76.70       76.61       76.49       76.36       76.22       76.06       75.90       75.72       75.54    
        75.34       75.14       74.93       74.71       74.49       74.25       74.00       73.75       73.49       73.22    
        72.93       72.64       72.34       72.03       71.71       71.38       71.04       70.70       70.35       70.00    
  42    70.00       70.70       71.38       72.04       72.66       73.25       73.79       74.28       74.73       75.12    
        75.46       75.76       76.01       76.21       76.36       76.48       76.56       76.61       76.62       76.61    
        76.57       76.51       76.43       76.33       76.21       76.08       75.94       75.78       75.61       75.43    
        75.25       75.05       74.84       74.63       74.40       74.17       73.93       73.68       73.42       73.15    
        72.87       72.58       72.28       71.98       71.66       71.34       71.01       70.68       70.34       70.00    
  43    70.00       70.65       71.29       71.91       72.50       73.05       73.57       74.04       74.47       74.85    
        75.19       75.49       75.73       75.94       76.11       76.23       76.32       76.38       76.41       76.41    
        76.39       76.34       76.27       76.18       76.08       75.95       75.82       75.67       75.51       75.34    
        75.16       74.96       74.76       74.55       74.33       74.10       73.86       73.61       73.36       73.09    
        72.81       72.53       72.24       71.94       71.63       71.31       70.99       70.66       70.33       70.00    
  44    70.00       70.62       71.22       71.80       72.36       72.89       73.38       73.84       74.25       74.63    
        74.96       75.25       75.50       75.71       75.88       76.02       76.12       76.19       76.23       76.24    
        76.22       76.19       76.13       76.05       75.95       75.84       75.71       75.57       75.42       75.25    
        75.08       74.89       74.69       74.48       74.27       74.04       73.80       73.56       73.30       73.04    
        72.77       72.48       72.20       71.90       71.60       71.29       70.97       70.65       70.33       70.00    
  45    70.00       70.59       71.16       71.72       72.25       72.76       73.23       73.67       74.07       74.44    
        74.77       75.06       75.31       75.52       75.70       75.84       75.94       76.02       76.07       76.09    
        76.08       76.06       76.01       75.94       75.85       75.74       75.62       75.49       75.34       75.18    
        75.01       74.82       74.63       74.42       74.21       73.98       73.75       73.51       73.26       72.99    
        72.72       72.45       72.16       71.87       71.57       71.26       70.95       70.64       70.32       70.00    
  46    70.00       70.56       71.11       71.65       72.16       72.65       73.11       73.54       73.93       74.29    
        74.61       74.90       75.15       75.36       75.54       75.69       75.80       75.88       75.94       75.96    
        75.97       75.95       75.90       75.84       75.76       75.66       75.55       75.42       75.27       75.12    
        74.95       74.77       74.58       74.37       74.16       73.94       73.71       73.47       73.22       72.96    
        72.69       72.42       72.13       71.84       71.55       71.25       70.94       70.63       70.32       70.00    
  47    70.00       70.54       71.08       71.59       72.09       72.56       73.01       73.43       73.82       74.17    
        74.49       74.77       75.02       75.24       75.42       75.57       75.68       75.77       75.83       75.87    
        75.87       75.86       75.82       75.77       75.69       75.60       75.49       75.36       75.22       75.07    
        74.90       74.72       74.53       74.33       74.12       73.90       73.67       73.43       73.19       72.93    
        72.66       72.39       72.11       71.83       71.53       71.23       70.93       70.62       70.31       70.00    
  48    70.00       70.53       71.05       71.55       72.04       72.50       72.94       73.35       73.73       74.08    
        74.40       74.68       74.93       75.15       75.33       75.48       75.60       75.69       75.75       75.79    
        75.80       75.79       75.76       75.71       75.64       75.55       75.44       75.32       75.18       75.03    
        74.87       74.69       74.50       74.30       74.10       73.88       73.65       73.41       73.16       72.91    
        72.65       72.37       72.10       71.81       71.52       71.22       70.92       70.62       70.31       70.00    
  49    70.00       70.52       71.03       71.53       72.01       72.46       72.90       73.30       73.68       74.03    
        74.34       74.62       74.87       75.09       75.27       75.42       75.54       75.64       75.70       75.74    
        75.76       75.75       75.72       75.67       75.60       75.51       75.41       75.29       75.15       75.00    
        74.84       74.67       74.48       74.28       74.08       73.86       73.63       73.39       73.15       72.89    
        72.63       72.36       72.08       71.80       71.51       71.22       70.92       70.61       70.31       70.00    
  50    70.00       70.52       71.02       71.51       71.99       72.44       72.87       73.28       73.65       74.00    
        74.31       74.59       74.84       75.06       75.24       75.39       75.51       75.61       75.68       75.72    
        75.73       75.73       75.70       75.65       75.58       75.50       75.39       75.27       75.14       74.99    
        74.83       74.66       74.47       74.27       74.07       73.85       73.62       73.39       73.14       72.89    
        72.63       72.36       72.08       71.80       71.51       71.21       70.92       70.61       70.31       70.00    

 HEAD WILL BE SAVED ON UNIT   51 AT END OF TIME STEP    1, STRESS PERIOD    1

 DRAWDOWN WILL BE SAVED ON UNIT   52 AT END OF TIME STEP    1, STRESS PERIOD    1
1
  VOLUMETRIC BUDGET FOR ENTIRE MODEL AT END OF TIME STEP    1, STRESS PERIOD   1
  ------------------------------------------------------------------------------

     CUMULATIVE VOLUMES      L**3       RATES FOR THIS TIME STEP      L**3/T
     ------------------                 ------------------------

           IN:                                      IN:
           ---                                      ---
             STORAGE =           0.0000               STORAGE =           0.0000
       CONSTANT HEAD =           0.0000         CONSTANT HEAD =           0.0000
               WELLS =         375.0000                 WELLS =         375.0000
       RIVER LEAKAGE =     1224976.6250         RIVER LEAKAGE =     1224976.6250
                  ET =           0.0000                    ET =           0.0000
            RECHARGE =        7600.0000              RECHARGE =        7600.0000

            TOTAL IN =     1232951.6250              TOTAL IN =     1232951.6250

          OUT:                                     OUT:
          ----                                     ----
             STORAGE =           0.0000               STORAGE =           0.0000
       CONSTANT HEAD =     1197798.3750         CONSTANT HEAD =     1197798.3750
               WELLS =        6000.0000                 WELLS =        6000.0000
       RIVER LEAKAGE =       28788.1758         RIVER LEAKAGE =       28788.1758
                  ET =         364.5597                    ET =         364.5597
            RECHARGE =           0.0000              RECHARGE =           0.0000

           TOTAL OUT =     1232951.0000             TOTAL OUT =     1232951.0000

            IN - OUT =           0.6250              IN - OUT =           0.6250

 PERCENT DISCREPANCY =           0.00     PERCENT DISCREPANCY =           0.00






         TIME SUMMARY AT END OF TIME STEP    1 IN STRESS PERIOD    1
                    SECONDS     MINUTES      HOURS       DAYS        YEARS
                    -----------------------------------------------------------
   TIME STEP LENGTH  86400.      1440.0      24.000      1.0000     2.73785E-03
 STRESS PERIOD TIME  86400.      1440.0      24.000      1.0000     2.73785E-03
         TOTAL TIME  86400.      1440.0      24.000      1.0000     2.73785E-03
1

 Run end date and time (yyyy/mm/dd hh:mm:ss): 2026/02/25  7:18:40
 Elapsed run time:  9.277 Seconds

