                                  MODFLOW-2005     
      U.S. GEOLOGICAL SURVEY MODULAR FINITE-DIFFERENCE GROUND-WATER FLOW MODEL
                            VERSION 1.12.00 2/3/2017

 LIST FILE: static_ensemble_S2wel_1323131.list
                         UNIT    2

 OPENING static_ensemble_S2wel_1323131.dis
 FILE TYPE:DIS   UNIT   11   STATUS:OLD    
 FORMAT:FORMATTED              ACCESS:SEQUENTIAL          

 OPENING static_ensemble_S2wel_1323131.bas
 FILE TYPE:BAS6   UNIT   13   STATUS:OLD    
 FORMAT:FORMATTED              ACCESS:SEQUENTIAL          

 OPENING static_ensemble_S2wel_1323131.lpf
 FILE TYPE:LPF   UNIT   15   STATUS:OLD    
 FORMAT:FORMATTED              ACCESS:SEQUENTIAL          

 OPENING static_ensemble_S2wel_1323131.evt
 FILE TYPE:EVT   UNIT   22   STATUS:OLD    
 FORMAT:FORMATTED              ACCESS:SEQUENTIAL          

 OPENING static_ensemble_S2wel_1323131.rch
 FILE TYPE:RCH   UNIT   19   STATUS:OLD    
 FORMAT:FORMATTED              ACCESS:SEQUENTIAL          

 OPENING static_ensemble_S2wel_1323131.riv
 FILE TYPE:RIV   UNIT   18   STATUS:OLD    
 FORMAT:FORMATTED              ACCESS:SEQUENTIAL          

 OPENING static_ensemble_S2wel_1323131.wel
 FILE TYPE:WEL   UNIT   20   STATUS:OLD    
 FORMAT:FORMATTED              ACCESS:SEQUENTIAL          

 OPENING static_ensemble_S2wel_1323131.oc
 FILE TYPE:OC   UNIT   14   STATUS:OLD    
 FORMAT:FORMATTED              ACCESS:SEQUENTIAL          

 OPENING static_ensemble_S2wel_1323131.pcg
 FILE TYPE:PCG   UNIT   27   STATUS:OLD    
 FORMAT:FORMATTED              ACCESS:SEQUENTIAL          

 OPENING static_ensemble_S2wel_1323131.cbc
 FILE TYPE:DATA(BINARY)   UNIT   53   STATUS:REPLACE
 FORMAT:UNFORMATTED            ACCESS:STREAM              

 OPENING static_ensemble_S2wel_1323131.hds
 FILE TYPE:DATA(BINARY)   UNIT   51   STATUS:REPLACE
 FORMAT:UNFORMATTED            ACCESS:STREAM              

 OPENING static_ensemble_S2wel_1323131.ddn
 FILE TYPE:DATA(BINARY)   UNIT   52   STATUS:REPLACE
 FORMAT:UNFORMATTED            ACCESS:STREAM              

 BAS -- BASIC PACKAGE, VERSION 7, 5/2/2005 INPUT READ FROM UNIT   13
 
 MODFLOW was compiled using mixed precision
 Precision of REAL variables:           6
 Precision of DOUBLE PRECISION variables:          15

 DISCRETIZATION INPUT DATA READ FROM UNIT   11
 # DIS package for MODFLOW-2005 generated by Flopy 3.10.0
    3 LAYERS        50 ROWS        50 COLUMNS
    1 STRESS PERIOD(S) IN SIMULATION
 MODEL TIME UNIT IS DAYS
 MODEL LENGTH UNIT IS METERS
  Confining bed flag for each layer:
   0   0   0

                     DELR =   1000.00    

                     DELC =   1000.00    



           TOP ELEVATION OF LAYER 1
 READING ON UNIT   11 WITH FORMAT: (50E15.6)           



             MODEL LAYER BOTTOM EL. FOR LAYER   1
 READING ON UNIT   11 WITH FORMAT: (50E15.6)           



             MODEL LAYER BOTTOM EL. FOR LAYER   2
 READING ON UNIT   11 WITH FORMAT: (50E15.6)           



             MODEL LAYER BOTTOM EL. FOR LAYER   3
 READING ON UNIT   11 WITH FORMAT: (50E15.6)           


 STRESS PERIOD     LENGTH       TIME STEPS     MULTIPLIER FOR DELT    SS FLAG
 ----------------------------------------------------------------------------
        1         1.000000          1                    1.000         SS

 STEADY-STATE SIMULATION



 
 # BAS6 package for MODFLOW-2005 generated by Flopy 3.10.0                       
 THE FREE FORMAT OPTION HAS BEEN SELECTED



                     BOUNDARY ARRAY FOR LAYER   1
 READING ON UNIT   13 WITH FORMAT: (50I10)             



                     BOUNDARY ARRAY FOR LAYER   2
 READING ON UNIT   13 WITH FORMAT: (50I10)             



                     BOUNDARY ARRAY FOR LAYER   3
 READING ON UNIT   13 WITH FORMAT: (50I10)             

 AQUIFER HEAD WILL BE SET TO  -999.99     AT ALL NO-FLOW NODES (IBOUND=0).



                       INITIAL HEAD FOR LAYER   1
 READING ON UNIT   13 WITH FORMAT: (50E15.6)           



                       INITIAL HEAD FOR LAYER   2
 READING ON UNIT   13 WITH FORMAT: (50E15.6)           



                       INITIAL HEAD FOR LAYER   3
 READING ON UNIT   13 WITH FORMAT: (50E15.6)           
 # OC package for MODFLOW-2005 generated by Flopy 3.10.0

 OUTPUT CONTROL IS SPECIFIED ONLY AT TIME STEPS FOR WHICH OUTPUT IS DESIRED
 COMPACT CELL-BY-CELL BUDGET FILES WILL BE WRITTEN
 AUXILIARY DATA WILL BE SAVED IN CELL-BY-CELL BUDGET FILES
 HEAD PRINT FORMAT CODE IS   0    DRAWDOWN PRINT FORMAT CODE IS   0
 HEADS WILL BE SAVED ON UNIT   51    DRAWDOWNS WILL BE SAVED ON UNIT   52

 LPF -- LAYER-PROPERTY FLOW PACKAGE, VERSION 7, 5/2/2005
         INPUT READ FROM UNIT   15
 # LPF package for MODFLOW-2005 generated by Flopy 3.10.0
 CELL-BY-CELL FLOWS WILL BE SAVED ON UNIT   53
 HEAD AT CELLS THAT CONVERT TO DRY= -1.00000E+30
 No named parameters
 STORAGECOEFFICIENT OPTION:
 Read storage coefficient rather than specific storage

   LAYER FLAGS:
 LAYER       LAYTYP        LAYAVG         CHANI        LAYVKA        LAYWET
 ---------------------------------------------------------------------------
    1             1             0     1.000E+00             0             0
    2             1             0     1.000E+00             0             0
    3             1             0     1.000E+00             0             0

   INTERPRETATION OF LAYER FLAGS:
                        INTERBLOCK     HORIZONTAL    DATA IN
         LAYER TYPE   TRANSMISSIVITY   ANISOTROPY   ARRAY VKA   WETTABILITY
 LAYER      (LAYTYP)      (LAYAVG)       (CHANI)      (LAYVKA)      (LAYWET)
 ---------------------------------------------------------------------------
    1   CONVERTIBLE      HARMONIC     1.000E+00    VERTICAL K  NON-WETTABLE
    2   CONVERTIBLE      HARMONIC     1.000E+00    VERTICAL K  NON-WETTABLE
    3   CONVERTIBLE      HARMONIC     1.000E+00    VERTICAL K  NON-WETTABLE

 WETTING CAPABILITY IS NOT ACTIVE IN ANY LAYER



              HYD. COND. ALONG ROWS FOR LAYER   1
 READING ON UNIT   15 WITH FORMAT: (50E15.6)           



                VERTICAL HYD. COND. FOR LAYER   1
 READING ON UNIT   15 WITH FORMAT: (50E15.6)           



              HYD. COND. ALONG ROWS FOR LAYER   2
 READING ON UNIT   15 WITH FORMAT: (50E15.6)           



                VERTICAL HYD. COND. FOR LAYER   2
 READING ON UNIT   15 WITH FORMAT: (50E15.6)           



              HYD. COND. ALONG ROWS FOR LAYER   3
 READING ON UNIT   15 WITH FORMAT: (50E15.6)           



                VERTICAL HYD. COND. FOR LAYER   3
 READING ON UNIT   15 WITH FORMAT: (50E15.6)           

 WEL -- WELL PACKAGE, VERSION 7, 5/2/2005 INPUT READ FROM UNIT   20
 # WEL package for MODFLOW-2005 generated by Flopy 3.10.0
 No named parameters
 MAXIMUM OF      4 ACTIVE WELLS AT ONE TIME


     0 Well parameters

 RIV -- RIVER PACKAGE, VERSION 7, 5/2/2005 INPUT READ FROM UNIT   18
 # RIV package for MODFLOW-2005 generated by Flopy 3.10.0
 No named parameters
 MAXIMUM OF     49 ACTIVE RIVER REACHES AT ONE TIME
 CELL-BY-CELL FLOWS WILL BE SAVED ON UNIT   53


     0 River parameters

 EVT -- EVAPOTRANSPIRATION PACKAGE, VERSION 7, 5/2/2005
         INPUT READ FROM UNIT   22
 # EVT package for MODFLOW-2005 generated by Flopy 3.10.0
 No named parameters
 OPTION 3 -- EVAPOTRANSPIRATION FROM HIGHEST ACTIVE NODE IN EACH VERTICAL COLUMN
 CELL-BY-CELL FLOWS WILL BE SAVED ON UNIT   53


     0 Evapotranspiration parameters

 RCH -- RECHARGE PACKAGE, VERSION 7, 5/2/2005 INPUT READ FROM UNIT   19
 # RCH package for MODFLOW-2005 generated by Flopy 3.10.0
 No named parameters
 OPTION 3 -- RECHARGE TO HIGHEST ACTIVE NODE IN EACH VERTICAL COLUMN
 CELL-BY-CELL FLOWS WILL BE SAVED ON UNIT   53


     0 Recharge parameters

 PCG -- CONJUGATE-GRADIENT SOLUTION PACKAGE, VERSION 7, 5/2/2005
 # PCG package for MODFLOW-2005 generated by Flopy 3.10.0
 MAXIMUM OF   5000 CALLS OF SOLUTION ROUTINE
 MAXIMUM OF    500 INTERNAL ITERATIONS PER CALL TO SOLUTION ROUTINE
 MATRIX PRECONDITIONING TYPE :    1



                                    SOLUTION BY THE CONJUGATE-GRADIENT METHOD
                                   -------------------------------------------
                    MAXIMUM NUMBER OF CALLS TO PCG ROUTINE =     5000
                        MAXIMUM ITERATIONS PER CALL TO PCG =      500
                               MATRIX PRECONDITIONING TYPE =        1
        RELAXATION FACTOR (ONLY USED WITH PRECOND. TYPE 1) =    0.97000E+00
 PARAMETER OF POLYNOMIAL PRECOND. = 2 (2) OR IS CALCULATED :        0
                         HEAD CHANGE CRITERION FOR CLOSURE =    0.10000E-04
                     RESIDUAL CHANGE CRITERION FOR CLOSURE =    0.10000E-04
            PCG HEAD AND RESIDUAL CHANGE PRINTOUT INTERVAL =      999
     PRINTING FROM SOLVER IS LIMITED(1) OR SUPPRESSED (>1) =        3
                            STEADY-STATE DAMPING PARAMETER =    0.10000E-01
                               TRANSIENT DAMPING PARAMETER =    0.10000E-01
1
                            STRESS PERIOD NO.    1, LENGTH =   1.000000    
                            -----------------------------------------------

                              NUMBER OF TIME STEPS =     1

                               MULTIPLIER FOR DELT =     1.000

                            INITIAL TIME STEP SIZE =   1.000000    

 WELL NO.  LAYER   ROW   COL   STRESS RATE         
 --------------------------------------------------
      1      3     22     39      -1500.    
      2      1     13     15      -4500.    
      3      1     25     26       375.0    
      4      3     30     39      -1500.    

      4 WELLS

 REACH NO.  LAYER   ROW   COL     STAGE      CONDUCTANCE     BOTTOM EL.         
 -------------------------------------------------------------------------------
      1      1     25      2       100.5           50.00           98.00    
      2      1     25      3       99.50           50.00           97.00    
      3      1     25      4       98.50           50.00           96.00    
      4      1     25      5       97.50           50.00           95.00    
      5      1     25      6       96.50           50.00           94.00    
      6      1     25      7       95.50           50.00           93.00    
      7      1     25      8       94.50           50.00           92.00    
      8      1     25      9       93.50           50.00           91.00    
      9      1     25     10       92.50           50.00           90.00    
     10      1     25     11       91.50           50.00           89.00    
     11      1     25     12       90.50           50.00           88.00    
     12      1     25     13       89.50           50.00           87.00    
     13      1     25     14       88.50           50.00           86.00    
     14      1     25     15       87.50           50.00           85.00    
     15      1     25     16       86.50           50.00           84.00    
     16      1     25     17       85.50           50.00           83.00    
     17      1     25     18       84.50           50.00           82.00    
     18      1     25     19       83.50           50.00           81.00    
     19      1     25     20       82.50           50.00           80.00    
     20      1     25     21       81.50           50.00           79.00    
     21      1     25     22       80.50           50.00           78.00    
     22      1     25     23       79.50           50.00           77.00    
     23      1     25     24       78.50           50.00           76.00    
     24      1     25     25       77.50           50.00           75.00    
     25      1     25     26       77.40           50.00           74.90    
     26      1     25     27       77.30           50.00           74.80    
     27      1     25     28       77.20           50.00           74.70    
     28      1     25     29       77.10           50.00           74.60    
     29      1     25     30       77.00           50.00           74.50    
     30      1     25     31       76.90           50.00           74.40    
     31      1     25     32       76.80           50.00           74.30    
     32      1     25     33       76.70           50.00           74.20    
     33      1     25     34       76.60           50.00           74.10    
     34      1     25     35       76.50           50.00           74.00    
     35      1     25     36       76.40           50.00           73.90    
     36      1     25     37       76.30           50.00           73.80    
     37      1     25     38       76.20           50.00           73.70    
     38      1     25     39       76.10           50.00           73.60    
     39      1     25     40       76.00           50.00           73.50    
     40      1     25     41       75.90           50.00           73.40    
     41      1     25     42       75.80           50.00           73.30    
     42      1     25     43       75.70           50.00           73.20    
     43      1     25     44       75.60           50.00           73.10    
     44      1     25     45       75.50           50.00           73.00    
     45      1     25     46       75.40           50.00           72.90    
     46      1     25     47       75.30           50.00           72.80    
     47      1     25     48       75.20           50.00           72.70    
     48      1     25     49       75.10           50.00           72.60    
     49      1     25     50       75.00           50.00           72.50    

     49 RIVER REACHES



                         ET SURFACE
 READING ON UNIT   22 WITH FORMAT: (50E15.6)           



            EVAPOTRANSPIRATION RATE
 READING ON UNIT   22 WITH FORMAT: (50E15.6)           

         EXTINCTION DEPTH =   10.0000    



                           RECHARGE
 READING ON UNIT   19 WITH FORMAT: (50E15.6)           
 
 SOLVING FOR HEAD 

 OUTPUT CONTROL FOR STRESS PERIOD    1   TIME STEP    1
    SAVE HEAD FOR ALL LAYERS
    SAVE DRAWDOWN FOR ALL LAYERS
    SAVE BUDGET
    PRINT HEAD FOR ALL LAYERS
    PRINT BUDGET
 UBDSV2 SAVING "   CONSTANT HEAD" ON UNIT  53 AT TIME STEP  1, STRESS PERIOD   1
 UBDSV1 SAVING "FLOW RIGHT FACE " ON UNIT  53 AT TIME STEP  1, STRESS PERIOD   1
 UBDSV1 SAVING "FLOW FRONT FACE " ON UNIT  53 AT TIME STEP  1, STRESS PERIOD   1
 UBDSV1 SAVING "FLOW LOWER FACE " ON UNIT  53 AT TIME STEP  1, STRESS PERIOD   1
 UBDSV4 SAVING "   RIVER LEAKAGE" ON UNIT  53 AT TIME STEP  1, STRESS PERIOD   1
 UBDSV3 SAVING "              ET" ON UNIT  53 AT TIME STEP  1, STRESS PERIOD   1
 UBDSV3 SAVING "        RECHARGE" ON UNIT  53 AT TIME STEP  1, STRESS PERIOD   1
1
              HEAD IN LAYER   1 AT END OF TIME STEP   1 IN STRESS PERIOD    1
  ---------------------------------------------------------------------------

            1           2           3           4           5           6           7           8           9          10
           11          12          13          14          15          16          17          18          19          20
           21          22          23          24          25          26          27          28          29          30
           31          32          33          34          35          36          37          38          39          40
           41          42          43          44          45          46          47          48          49          50
 ........................................................................................................................
   1  -1000.0     -1000.0     -1000.0     -1000.0     -1000.0     -1000.0     -1000.0     -1000.0     -1000.0     -1000.0    
      -1000.0     -1000.0     -1000.0     -1000.0     -1000.0     -1000.0     -1000.0     -1000.0     -1000.0     -1000.0    
      -1000.0     -1000.0     -1000.0     -1000.0     -1000.0     -1000.0     -1000.0     -1000.0     -1000.0     -1000.0    
      -1000.0     -1000.0     -1000.0     -1000.0     -1000.0     -1000.0     -1000.0     -1000.0     -1000.0     -1000.0    
      -1000.0     -1000.0     -1000.0     -1000.0     -1000.0     -1000.0     -1000.0     -1000.0     -1000.0       70.00    
   2  -1000.0     -1000.0     -1000.0     -1000.0     -1000.0       105.0       104.7       104.2       103.7       103.0    
        102.5       101.8       101.0       100.2       99.24       98.23       97.24       96.27       95.33       94.40    
        93.49       92.60       91.73       90.86       90.00       89.16       88.32       87.49       86.66       85.85    
        85.03       84.23       83.43       82.63       81.83       81.04       80.26       79.47       78.69       77.91    
        77.13       76.35       75.57       74.79       74.00       73.21       72.42       71.62       70.81       70.00    
   3  -1000.0     -1000.0     -1000.0     -1000.0       105.4       105.1       104.7       104.2       103.6       103.1    
        102.5       101.8       101.0       100.1       99.21       98.19       97.21       96.24       95.30       94.38    
        93.47       92.58       91.70       90.84       89.99       89.14       88.30       87.47       86.65       85.83    
        85.02       84.22       83.41       82.62       81.82       81.03       80.25       79.46       78.68       77.90    
        77.12       76.34       75.56       74.78       74.00       73.21       72.42       71.62       70.81       70.00    
   4  -1000.0     -1000.0     -1000.0       105.7       105.5       105.1       104.7       104.2       103.7       103.1    
        102.4       101.7       100.9       100.1       99.14       98.13       97.14       96.18       95.24       94.32    
        93.42       92.54       91.66       90.80       89.95       89.11       88.27       87.44       86.62       85.81    
        85.00       84.19       83.39       82.59       81.80       81.01       80.23       79.44       78.66       77.88    
        77.11       76.33       75.55       74.77       73.99       73.20       72.41       71.61       70.81       70.00    
   5  -1000.0     -1000.0       106.0       105.8       105.5       105.1       104.6       104.2       103.7       103.1    
        102.4       101.7       100.9       99.99       99.04       98.03       97.04       96.09       95.15       94.24    
        93.35       92.47       91.60       90.75       89.90       89.06       88.23       87.40       86.58       85.77    
        84.96       84.15       83.35       82.56       81.77       80.98       80.20       79.41       78.64       77.86    
        77.08       76.31       75.53       74.75       73.97       73.19       72.40       71.61       70.81       70.00    
   6  -1000.0       106.2       106.0       105.8       105.5       105.1       104.7       104.2       103.6       103.0    
        102.3       101.6       100.8       99.86       98.90       97.89       96.90       95.96       95.04       94.14    
        93.25       92.39       91.53       90.68       89.83       89.00       88.17       87.35       86.53       85.71    
        84.91       84.10       83.31       82.51       81.72       80.94       80.15       79.37       78.60       77.82    
        77.05       76.28       75.50       74.73       73.95       73.17       72.39       71.60       70.80       70.00    
   7  -1000.0       106.1       106.0       105.8       105.4       105.1       104.7       104.2       103.6       103.0    
        102.2       101.5       100.6       99.68       98.71       97.70       96.72       95.79       94.89       94.00    
        93.14       92.28       91.43       90.59       89.75       88.92       88.10       87.28       86.46       85.65    
        84.84       84.04       83.24       82.45       81.66       80.88       80.10       79.32       78.55       77.78    
        77.01       76.24       75.47       74.70       73.93       73.15       72.38       71.59       70.80       70.00    
   8  -1000.0       106.1       105.9       105.7       105.4       105.1       104.6       104.1       103.5       102.9    
        102.1       101.3       100.4       99.45       98.46       97.45       96.49       95.59       94.71       93.85    
        93.00       92.16       91.32       90.49       89.66       88.83       88.01       87.19       86.38       85.57    
        84.77       83.97       83.17       82.38       81.60       80.82       80.04       79.26       78.49       77.73    
        76.96       76.20       75.43       74.67       73.90       73.13       72.36       71.58       70.79       70.00    
   9  -1000.0       106.0       105.8       105.6       105.4       105.0       104.6       104.1       103.4       102.7    
        102.0       101.1       100.1       99.14       98.13       97.13       96.21       95.34       94.50       93.67    
        92.85       92.03       91.20       90.38       89.56       88.73       87.92       87.10       86.29       85.48    
        84.68       83.88       83.09       82.30       81.52       80.74       79.96       79.19       78.43       77.66    
        76.90       76.14       75.39       74.63       73.87       73.10       72.34       71.56       70.79       70.00    
  10  -1000.0       105.9       105.8       105.6       105.3       105.0       104.5       104.0       103.3       102.6    
        101.8       100.8       99.82       98.74       97.68       96.71       95.86       95.06       94.28       93.49    
        92.69       91.89       91.08       90.26       89.44       88.63       87.81       87.00       86.19       85.38    
        84.58       83.78       82.99       82.20       81.42       80.65       79.88       79.11       78.35       77.59    
        76.84       76.08       75.33       74.58       73.83       73.07       72.31       71.55       70.78       70.00    
  11  -1000.0       105.8       105.7       105.5       105.3       104.9       104.5       103.9       103.2       102.5    
        101.6       100.6       99.44       98.21       97.02       96.16       95.46       94.76       94.05       93.30    
        92.53       91.75       90.95       90.14       89.32       88.51       87.69       86.88       86.07       85.27    
        84.47       83.67       82.88       82.10       81.32       80.55       79.78       79.02       78.26       77.51    
        76.76       76.01       75.27       74.53       73.78       73.04       72.29       71.53       70.77       70.00    
  12  -1000.0       105.8       105.7       105.5       105.2       104.8       104.4       103.8       103.1       102.4    
        101.4       100.3       99.05       97.52       95.90       95.45       95.03       94.48       93.84       93.13    
        92.39       91.61       90.82       90.01       89.20       88.38       87.57       86.76       85.95       85.14    
        84.34       83.55       82.76       81.98       81.20       80.43       79.67       78.91       78.16       77.41    
        76.67       75.94       75.20       74.47       73.73       73.00       72.26       71.51       70.76       70.00    
  13  -1000.0       105.7       105.6       105.4       105.2       104.8       104.3       103.7       103.1       102.3    
        101.3       100.2       98.76       96.81       93.42       94.72       94.72       94.29       93.69       93.00    
        92.26       91.49       90.70       89.89       89.07       88.25       87.44       86.62       85.81       85.01    
        84.21       83.41       82.63       81.84       81.07       80.30       79.54       78.79       78.04       77.30    
        76.57       75.85       75.12       74.40       73.68       72.95       72.22       71.49       70.75       70.00    
  14  -1000.0       105.6       105.5       105.4       105.1       104.7       104.3       103.7       103.0       102.2    
        101.3       100.2       98.87       97.34       95.71       95.26       94.83       94.27       93.63       92.92    
        92.16       91.38       90.58       89.76       88.94       88.11       87.29       86.48       85.67       84.86    
        84.06       83.27       82.48       81.70       80.92       80.16       79.40       78.65       77.91       77.18    
        76.46       75.75       75.04       74.33       73.62       72.91       72.19       71.47       70.74       70.00    
  15  -1000.0       105.6       105.5       105.3       105.0       104.7       104.2       103.6       103.0       102.2    
        101.3       100.3       99.10       97.85       96.64       95.77       95.05       94.35       93.62       92.87    
        92.08       91.28       90.46       89.63       88.80       87.97       87.14       86.32       85.51       84.70    
        83.90       83.11       82.32       81.54       80.77       80.00       79.24       78.50       77.77       77.05    
        76.34       75.64       74.95       74.25       73.56       72.86       72.15       71.44       70.73       70.00    
  16  -1000.0       105.5       105.4       105.2       105.0       104.6       104.1       103.6       102.9       102.2    
        101.3       100.4       99.30       98.20       97.11       96.12       95.26       94.44       93.64       92.83    
        92.01       91.18       90.35       89.50       88.66       87.81       86.98       86.15       85.34       84.53    
        83.73       82.94       82.15       81.37       80.59       79.82       79.07       78.33       77.60       76.89    
        76.20       75.52       74.85       74.17       73.49       72.81       72.12       71.42       70.71       70.00    
  17  -1000.0       105.4       105.3       105.2       104.9       104.5       104.1       103.5       102.9       102.2    
        101.3       100.4       99.45       98.42       97.38       96.35       95.41       94.52       93.66       92.80    
        91.95       91.09       90.22       89.36       88.50       87.65       86.81       85.98       85.16       84.35    
        83.55       82.75       81.96       81.18       80.40       79.63       78.87       78.13       77.41       76.72    
        76.05       75.39       74.74       74.08       73.43       72.76       72.08       71.40       70.70       70.00    
  18  -1000.0       105.3       105.3       105.1       104.8       104.5       104.0       103.5       102.9       102.1    
        101.3       100.5       99.53       98.54       97.52       96.47       95.49       94.56       93.66       92.76    
        91.87       90.98       90.09       89.21       88.34       87.47       86.62       85.79       84.96       84.15    
        83.35       82.56       81.77       80.98       80.20       79.42       78.65       77.91       77.19       76.52    
        75.87       75.25       74.63       74.00       73.36       72.71       72.05       71.38       70.69       70.00    
  19  -1000.0       105.2       105.2       105.0       104.7       104.4       103.9       103.4       102.8       102.1    
        101.3       100.5       99.55       98.58       97.57       96.51       95.51       94.56       93.64       92.72    
        91.78       90.85       89.94       89.04       88.15       87.28       86.42       85.58       84.76       83.95    
        83.14       82.35       81.56       80.77       79.98       79.20       78.41       77.64       76.92       76.28    
        75.68       75.10       74.51       73.92       73.30       72.67       72.03       71.36       70.69       70.00    
  20  -1000.0       105.1       105.1       104.9       104.6       104.3       103.8       103.3       102.7       102.0    
        101.2       100.4       99.51       98.55       97.54       96.48       95.48       94.53       93.62       92.67    
        91.67       90.70       89.76       88.84       87.94       87.06       86.20       85.36       84.54       83.73    
        82.93       82.14       81.35       80.56       79.77       78.96       78.14       77.32       76.56       75.99    
        75.47       74.95       74.41       73.84       73.26       72.64       72.01       71.35       70.68       70.00    
  21  -1000.0       105.0       105.0       104.8       104.5       104.1       103.7       103.2       102.6       101.9    
        101.1       100.3       99.41       98.46       97.45       96.38       95.38       94.44       93.62       92.65    
        91.53       90.51       89.54       88.61       87.71       86.83       85.97       85.13       84.31       83.50    
        82.70       81.92       81.13       80.35       79.55       78.73       77.86       76.94       76.02       75.64    
        75.26       74.82       74.33       73.79       73.23       72.63       72.01       71.36       70.69       70.00    
  22  -1000.0       104.9       104.8       104.6       104.4       104.0       103.6       103.0       102.4       101.7    
        101.0       100.2       99.26       98.30       97.29       96.21       95.19       94.24       93.40       92.42    
        91.28       90.25       89.27       88.34       87.44       86.57       85.71       84.87       84.05       83.26    
        82.47       81.69       80.92       80.15       79.35       78.53       77.63       76.55       74.92       75.28    
        75.10       74.73       74.28       73.78       73.23       72.65       72.03       71.38       70.70       70.00    
  23  -1000.0       104.8       104.7       104.5       104.2       103.8       103.4       102.8       102.2       101.5    
        100.8       99.95       99.05       98.09       97.06       95.97       94.93       93.93       92.97       91.97    
        90.93       89.92       88.96       88.03       87.15       86.29       85.43       84.60       83.79       83.00    
        82.23       81.47       80.72       79.96       79.19       78.40       77.57       76.69       75.81       75.47    
        75.13       74.74       74.29       73.80       73.27       72.69       72.08       71.42       70.73       70.00    
  24  -1000.0       104.7       104.6       104.4       104.1       103.7       103.2       102.6       102.0       101.3    
        100.5       99.70       98.80       97.82       96.79       95.68       94.61       93.58       92.56       91.55    
        90.54       89.54       88.59       87.68       86.82       86.02       85.14       84.30       83.50       82.73    
        81.98       81.25       80.52       79.79       79.06       78.32       77.57       76.83       76.15       75.66    
        75.23       74.80       74.35       73.86       73.34       72.78       72.17       71.50       70.78       70.00    
  25  -1000.0       104.6       104.5       104.2       103.9       103.5       103.0       102.4       101.7       101.0    
        100.2       99.40       98.49       97.51       96.46       95.33       94.25       93.19       92.15       91.12    
        90.11       89.12       88.16       87.25       86.44       85.83       84.81       83.96       83.19       82.45    
        81.73       81.02       80.33       79.63       78.94       78.25       77.57       76.91       76.30       75.79    
        75.33       74.89       74.44       73.97       73.47       72.92       72.31       71.64       70.89       70.00    
  26  -1000.0       105.0       104.9       104.7       104.4       104.0       103.5       103.0       102.3       101.6    
        100.9       100.0       99.14       98.16       97.11       95.98       94.88       93.81       92.76       91.73    
        90.72       89.73       88.78       87.86       87.00       86.19       85.30       84.45       83.64       82.86    
        82.10       81.35       80.61       79.88       79.15       78.43       77.71       77.03       76.40       75.85    
        75.35       74.87       74.39       73.89       73.36       72.79       72.18       71.51       70.78       70.00    
  27  -1000.0       105.4       105.3       105.1       104.8       104.5       104.0       103.5       102.9       102.2    
        101.5       100.6       99.75       98.77       97.72       96.59       95.48       94.41       93.35       92.32    
        91.30       90.31       89.35       88.42       87.52       86.64       85.76       84.90       84.06       83.25    
        82.46       81.68       80.90       80.13       79.36       78.60       77.84       77.10       76.44       75.86    
        75.35       74.86       74.36       73.84       73.29       72.71       72.09       71.43       70.73       70.00    
  28  -1000.0       105.8       105.7       105.5       105.3       104.9       104.5       104.0       103.4       102.7    
        102.0       101.2       100.3       99.34       98.29       97.16       96.05       94.97       93.90       92.87    
        91.85       90.85       89.88       88.93       88.00       87.09       86.20       85.32       84.47       83.63    
        82.81       82.00       81.19       80.39       79.58       78.76       77.94       77.12       76.38       75.83    
        75.34       74.86       74.35       73.82       73.26       72.67       72.04       71.39       70.70       70.00    
  29  -1000.0       106.2       106.1       105.9       105.7       105.4       104.9       104.4       103.9       103.2    
        102.5       101.7       100.8       99.86       98.82       97.68       96.58       95.49       94.43       93.38    
        92.36       91.36       90.37       89.41       88.46       87.53       86.62       85.73       84.86       84.00    
        83.15       82.32       81.49       80.65       79.80       78.94       78.03       77.08       76.13       75.73    
        75.33       74.88       74.38       73.84       73.27       72.66       72.03       71.37       70.69       70.00    
  30  -1000.0       106.6       106.5       106.3       106.1       105.8       105.4       104.9       104.3       103.7    
        103.0       102.2       101.3       100.3       99.30       98.17       97.06       95.98       94.91       93.86    
        92.83       91.82       90.83       89.86       88.89       87.95       87.02       86.11       85.23       84.35    
        83.49       82.63       81.78       80.92       80.05       79.15       78.18       77.03       75.33       75.62    
        75.37       74.95       74.44       73.89       73.30       72.68       72.04       71.38       70.69       70.00    
  31  -1000.0       106.9       106.8       106.7       106.4       106.1       105.7       105.3       104.7       104.1    
        103.4       102.6       101.7       100.8       99.74       98.62       97.51       96.42       95.35       94.30    
        93.27       92.26       91.26       90.27       89.30       88.34       87.40       86.48       85.58       84.69    
        83.81       82.94       82.07       81.20       80.32       79.42       78.48       77.49       76.50       76.05    
        75.60       75.10       74.55       73.97       73.36       72.72       72.06       71.39       70.70       70.00    
  32  -1000.0       107.2       107.2       107.0       106.8       106.5       106.1       105.6       105.1       104.5    
        103.8       103.0       102.1       101.2       100.1       99.02       97.92       96.83       95.77       94.71    
        93.68       92.66       91.65       90.65       89.67       88.70       87.75       86.82       85.91       85.01    
        84.12       83.24       82.37       81.49       80.61       79.73       78.83       77.94       77.11       76.46    
        75.88       75.29       74.69       74.07       73.43       72.77       72.10       71.41       70.71       70.00    
  33  -1000.0       107.5       107.5       107.3       107.1       106.8       106.4       106.0       105.4       104.8    
        104.1       103.3       102.5       101.5       100.5       99.40       98.30       97.21       96.14       95.09    
        94.05       93.03       92.01       91.01       90.02       89.05       88.09       87.15       86.23       85.32    
        84.42       83.53       82.66       81.78       80.91       80.04       79.17       78.32       77.53       76.81    
        76.14       75.50       74.85       74.19       73.52       72.84       72.15       71.44       70.73       70.00    
  34  -1000.0       107.8       107.7       107.6       107.4       107.1       106.7       106.3       105.7       105.1    
        104.4       103.7       102.8       101.9       100.9       99.74       98.64       97.56       96.49       95.43    
        94.39       93.37       92.35       91.34       90.35       89.37       88.40       87.46       86.53       85.61    
        84.71       83.82       82.94       82.06       81.19       80.33       79.48       78.65       77.86       77.11    
        76.39       75.70       75.01       74.32       73.62       72.91       72.20       71.48       70.74       70.00    
  35  -1000.0       108.1       108.0       107.8       107.6       107.3       107.0       106.5       106.0       105.4    
        104.7       104.0       103.1       102.2       101.2       100.0       98.95       97.87       96.80       95.75    
        94.71       93.68       92.66       91.65       90.65       89.66       88.70       87.75       86.81       85.89    
        84.99       84.09       83.21       82.33       81.46       80.60       79.76       78.93       78.13       77.36    
        76.61       75.88       75.16       74.44       73.72       72.99       72.25       71.51       70.76       70.00    
  36  -1000.0       108.3       108.2       108.1       107.9       107.6       107.2       106.8       106.2       105.7    
        105.0       104.2       103.4       102.4       101.4       100.3       99.24       98.16       97.09       96.04    
        95.00       93.97       92.95       91.93       90.93       89.94       88.97       88.02       87.08       86.16    
        85.25       84.35       83.46       82.58       81.71       80.85       80.01       79.18       78.37       77.58    
        76.81       76.06       75.31       74.56       73.81       73.06       72.31       71.55       70.78       70.00    
  37  -1000.0       108.5       108.4       108.3       108.1       107.8       107.4       107.0       106.5       105.9    
        105.2       104.4       103.6       102.7       101.7       100.6       99.49       98.42       97.35       96.30    
        95.26       94.23       93.21       92.19       91.19       90.20       89.23       88.27       87.33       86.40    
        85.49       84.59       83.70       82.82       81.94       81.08       80.23       79.40       78.58       77.78    
        76.99       76.21       75.44       74.67       73.91       73.14       72.36       71.58       70.80       70.00    
  38  -1000.0       108.7       108.6       108.5       108.3       108.0       107.6       107.2       106.7       106.1    
        105.4       104.7       103.8       102.9       101.9       100.8       99.72       98.65       97.59       96.54    
        95.50       94.47       93.45       92.43       91.43       90.44       89.46       88.50       87.56       86.63    
        85.72       84.81       83.92       83.03       82.16       81.29       80.44       79.60       78.77       77.96    
        77.15       76.36       75.57       74.78       73.99       73.20       72.41       71.62       70.81       70.00    
  39  -1000.0       108.8       108.8       108.6       108.4       108.1       107.8       107.3       106.8       106.2    
        105.6       104.8       104.0       103.1       102.1       101.0       99.92       98.86       97.80       96.75    
        95.71       94.68       93.66       92.65       91.65       90.65       89.68       88.72       87.78       86.85    
        85.93       85.02       84.12       83.23       82.35       81.48       80.62       79.77       78.94       78.11    
        77.29       76.48       75.68       74.87       74.07       73.27       72.46       71.65       70.83       70.00    
  40  -1000.0       109.0       108.9       108.8       108.6       108.3       107.9       107.5       107.0       106.4    
        105.7       105.0       104.2       103.3       102.3       101.2       100.1       99.04       97.98       96.94    
        95.90       94.87       93.86       92.85       91.84       90.85       89.88       88.92       87.97       87.04    
        86.11       85.20       84.30       83.40       82.52       81.65       80.78       79.93       79.09       78.25    
        77.42       76.60       75.78       74.96       74.14       73.33       72.50       71.68       70.84       70.00    
  41  -1000.0       109.1       109.0       108.9       108.7       108.4       108.0       107.6       107.1       106.5    
        105.9       105.1       104.3       103.4       102.4       101.3       100.3       99.20       98.15       97.11    
        96.07       95.05       94.03       93.02       92.02       91.03       90.06       89.09       88.15       87.21    
        86.28       85.37       84.46       83.56       82.68       81.80       80.93       80.07       79.22       78.37    
        77.53       76.70       75.87       75.04       74.21       73.38       72.54       71.70       70.86       70.00    
  42  -1000.0       109.3       109.1       109.0       108.8       108.5       108.1       107.7       107.2       106.6    
        106.0       105.2       104.4       103.5       102.5       101.5       100.4       99.34       98.29       97.25    
        96.22       95.20       94.18       93.17       92.18       91.19       90.21       89.25       88.30       87.36    
        86.43       85.51       84.60       83.70       82.81       81.93       81.06       80.19       79.33       78.48    
        77.63       76.79       75.95       75.11       74.27       73.42       72.58       71.73       70.87       70.00    
  43  -1000.0       109.4       109.3       109.1       108.8       108.5       108.2       107.8       107.3       106.7    
        106.1       105.3       104.5       103.6       102.6       101.6       100.5       99.46       98.42       97.38    
        96.35       95.33       94.31       93.31       92.31       91.33       90.35       89.39       88.43       87.49    
        86.56       85.64       84.73       83.83       82.93       82.05       81.17       80.30       79.43       78.57    
        77.72       76.86       76.01       75.17       74.32       73.46       72.61       71.75       70.88       70.00    
  44  -1000.0       109.5       109.4       109.2       108.9       108.6       108.2       107.8       107.3       106.8    
        106.1       105.4       104.6       103.7       102.7       101.7       100.6       99.57       98.52       97.49    
        96.46       95.44       94.43       93.42       92.43       91.44       90.47       89.50       88.55       87.61    
        86.67       85.75       84.84       83.93       83.03       82.14       81.26       80.38       79.51       78.65    
        77.79       76.93       76.07       75.22       74.36       73.50       72.64       71.77       70.89       70.00    
  45  -1000.0       109.5       109.4       109.2       109.0       108.6       108.3       107.8       107.4       106.8    
        106.2       105.5       104.7       103.8       102.8       101.7       100.7       99.65       98.61       97.57    
        96.55       95.53       94.52       93.52       92.52       91.54       90.56       89.60       88.65       87.70    
        86.77       85.84       84.93       84.02       83.12       82.22       81.34       80.46       79.58       78.71    
        77.85       76.98       76.12       75.26       74.39       73.53       72.66       71.78       70.89       70.00    
  46  -1000.0     -1000.0       109.4       109.3       109.0       108.7       108.2       107.8       107.4       106.8    
        106.2       105.5       104.7       103.8       102.9       101.8       100.8       99.71       98.68       97.64    
        96.62       95.60       94.59       93.59       92.60       91.61       90.64       89.68       88.72       87.78    
        86.84       85.91       85.00       84.09       83.18       82.29       81.40       80.52       79.64       78.76    
        77.89       77.03       76.16       75.29       74.42       73.55       72.67       71.79       70.90       70.00    
  47  -1000.0     -1000.0     -1000.0       109.2       109.0       108.7       108.3       107.8       107.3       106.8    
        106.2       105.5       104.7       103.9       102.9       101.9       100.8       99.76       98.73       97.70    
        96.67       95.66       94.65       93.65       92.66       91.67       90.70       89.73       88.78       87.83    
        86.90       85.97       85.05       84.14       83.23       82.34       81.44       80.56       79.68       78.80    
        77.93       77.06       76.19       75.32       74.44       73.57       72.69       71.80       70.91       70.00    
  48  -1000.0     -1000.0     -1000.0     -1000.0       108.9       108.6       108.3       107.9       107.3       106.8    
        106.2       105.5       104.7       103.9       102.9       101.9       100.8       99.79       98.76       97.73    
        96.71       95.69       94.69       93.69       92.69       91.71       90.74       89.77       88.82       87.87    
        86.93       86.00       85.08       84.17       83.27       82.37       81.48       80.59       79.71       78.83    
        77.95       77.08       76.21       75.33       74.46       73.58       72.70       71.81       70.91       70.00    
  49  -1000.0     -1000.0     -1000.0     -1000.0     -1000.0       108.6       108.3       107.9       107.3       106.7    
        106.2       105.5       104.7       103.9       102.9       101.9       100.8       99.81       98.78       97.75    
        96.73       95.71       94.70       93.70       92.71       91.73       90.76       89.79       88.84       87.89    
        86.95       86.02       85.10       84.19       83.28       82.38       81.49       80.60       79.72       78.84    
        77.96       77.09       76.22       75.34       74.46       73.58       72.70       71.81       70.91       70.00    
  50  -1000.0     -1000.0     -1000.0     -1000.0     -1000.0     -1000.0     -1000.0     -1000.0     -1000.0     -1000.0    
      -1000.0     -1000.0     -1000.0     -1000.0     -1000.0     -1000.0     -1000.0     -1000.0     -1000.0     -1000.0    
      -1000.0     -1000.0     -1000.0     -1000.0     -1000.0     -1000.0     -1000.0     -1000.0     -1000.0     -1000.0    
      -1000.0     -1000.0     -1000.0     -1000.0     -1000.0     -1000.0     -1000.0     -1000.0     -1000.0     -1000.0    
      -1000.0     -1000.0     -1000.0     -1000.0     -1000.0     -1000.0     -1000.0     -1000.0     -1000.0       70.00    
1
              HEAD IN LAYER   2 AT END OF TIME STEP   1 IN STRESS PERIOD    1
  ---------------------------------------------------------------------------

            1           2           3           4           5           6           7           8           9          10
           11          12          13          14          15          16          17          18          19          20
           21          22          23          24          25          26          27          28          29          30
           31          32          33          34          35          36          37          38          39          40
           41          42          43          44          45          46          47          48          49          50
 ........................................................................................................................
   1  -1000.0     -1000.0     -1000.0     -1000.0     -1000.0     -1000.0     -1000.0     -1000.0     -1000.0     -1000.0    
      -1000.0     -1000.0     -1000.0     -1000.0     -1000.0     -1000.0     -1000.0     -1000.0     -1000.0     -1000.0    
      -1000.0     -1000.0     -1000.0     -1000.0     -1000.0     -1000.0     -1000.0     -1000.0     -1000.0     -1000.0    
      -1000.0     -1000.0     -1000.0     -1000.0     -1000.0     -1000.0     -1000.0     -1000.0     -1000.0     -1000.0    
      -1000.0     -1000.0     -1000.0     -1000.0     -1000.0     -1000.0     -1000.0     -1000.0     -1000.0       70.00    
   2  -1000.0     -1000.0     -1000.0     -1000.0     -1000.0     -1000.0     -1000.0       104.2       103.7       103.0    
        102.5       101.8       101.0       100.2       99.24       98.23       97.24       96.27       95.33       94.40    
        93.49       92.60       91.73       90.86       90.00       89.16       88.32       87.49       86.66       85.85    
        85.03       84.23       83.43       82.63       81.83       81.04       80.26       79.47       78.69       77.91    
        77.13       76.35       75.57       74.79       74.00       73.21       72.42       71.62       70.81       70.00    
   3  -1000.0     -1000.0     -1000.0     -1000.0     -1000.0     -1000.0       104.7       104.2       103.6       103.1    
        102.5       101.8       101.0       100.1       99.20       98.19       97.21       96.24       95.30       94.38    
        93.47       92.58       91.70       90.84       89.99       89.14       88.30       87.47       86.65       85.83    
        85.02       84.22       83.41       82.62       81.82       81.03       80.25       79.46       78.68       77.90    
        77.12       76.34       75.56       74.78       74.00       73.21       72.42       71.62       70.81       70.00    
   4  -1000.0     -1000.0     -1000.0     -1000.0     -1000.0       105.1       104.7       104.2       103.7       103.1    
        102.4       101.7       100.9       100.1       99.14       98.13       97.14       96.18       95.24       94.32    
        93.42       92.54       91.66       90.80       89.95       89.11       88.27       87.44       86.62       85.81    
        85.00       84.19       83.39       82.59       81.80       81.01       80.23       79.44       78.66       77.88    
        77.11       76.33       75.55       74.77       73.99       73.20       72.41       71.61       70.81       70.00    
   5  -1000.0     -1000.0     -1000.0     -1000.0       105.5       105.1       104.6       104.2       103.7       103.1    
        102.4       101.7       100.9       99.99       99.04       98.03       97.04       96.09       95.15       94.24    
        93.35       92.47       91.60       90.75       89.90       89.06       88.23       87.40       86.58       85.77    
        84.96       84.15       83.35       82.56       81.77       80.98       80.20       79.41       78.64       77.86    
        77.08       76.31       75.53       74.75       73.97       73.19       72.40       71.61       70.81       70.00    
   6  -1000.0     -1000.0     -1000.0       105.8       105.5       105.1       104.7       104.2       103.6       103.0    
        102.3       101.6       100.8       99.86       98.90       97.89       96.90       95.96       95.04       94.14    
        93.25       92.39       91.53       90.68       89.83       89.00       88.17       87.35       86.53       85.71    
        84.91       84.10       83.31       82.51       81.72       80.94       80.15       79.37       78.60       77.82    
        77.05       76.28       75.50       74.73       73.95       73.17       72.39       71.60       70.80       70.00    
   7  -1000.0     -1000.0       106.0       105.8       105.4       105.1       104.7       104.2       103.6       103.0    
        102.2       101.5       100.6       99.68       98.71       97.70       96.72       95.79       94.89       94.00    
        93.14       92.28       91.43       90.59       89.75       88.92       88.10       87.28       86.46       85.65    
        84.84       84.04       83.24       82.45       81.66       80.88       80.10       79.32       78.55       77.78    
        77.01       76.24       75.47       74.70       73.93       73.15       72.38       71.59       70.80       70.00    
   8  -1000.0       106.1       105.9       105.7       105.4       105.1       104.6       104.1       103.5       102.9    
        102.1       101.3       100.4       99.45       98.46       97.45       96.49       95.59       94.71       93.85    
        93.00       92.16       91.32       90.49       89.66       88.83       88.01       87.19       86.38       85.57    
        84.77       83.97       83.17       82.38       81.60       80.82       80.04       79.26       78.49       77.73    
        76.96       76.20       75.43       74.67       73.90       73.13       72.36       71.58       70.79       70.00    
   9  -1000.0       106.0       105.8       105.6       105.4       105.0       104.6       104.1       103.4       102.7    
        102.0       101.1       100.1       99.14       98.13       97.13       96.21       95.34       94.50       93.67    
        92.85       92.03       91.20       90.38       89.56       88.73       87.92       87.10       86.29       85.48    
        84.68       83.88       83.09       82.30       81.52       80.74       79.96       79.19       78.43       77.66    
        76.90       76.14       75.39       74.63       73.87       73.10       72.34       71.56       70.79       70.00    
  10  -1000.0       105.9       105.8       105.6       105.3       105.0       104.5       104.0       103.3       102.6    
        101.8       100.8       99.82       98.74       97.68       96.71       95.86       95.06       94.28       93.49    
        92.69       91.89       91.08       90.26       89.44       88.63       87.81       87.00       86.19       85.38    
        84.58       83.78       82.99       82.20       81.42       80.65       79.88       79.11       78.35       77.59    
        76.84       76.08       75.33       74.58       73.83       73.07       72.31       71.55       70.78       70.00    
  11  -1000.0       105.8       105.7       105.5       105.3       104.9       104.5       103.9       103.2       102.5    
        101.6       100.6       99.44       98.21       97.02       96.16       95.46       94.76       94.05       93.30    
        92.53       91.75       90.95       90.14       89.32       88.51       87.69       86.88       86.07       85.27    
        84.47       83.67       82.88       82.10       81.32       80.55       79.78       79.02       78.26       77.51    
        76.76       76.01       75.27       74.53       73.78       73.04       72.29       71.53       70.77       70.00    
  12  -1000.0       105.8       105.7       105.5       105.2       104.8       104.4       103.8       103.1       102.4    
        101.4       100.3       99.05       97.52       95.90       95.45       95.03       94.48       93.84       93.13    
        92.39       91.61       90.82       90.01       89.20       88.38       87.57       86.76       85.95       85.14    
        84.34       83.55       82.76       81.98       81.20       80.43       79.67       78.91       78.16       77.41    
        76.67       75.94       75.20       74.47       73.73       73.00       72.26       71.51       70.76       70.00    
  13  -1000.0       105.7       105.6       105.4       105.2       104.8       104.3       103.7       103.1       102.3    
        101.3       100.2       98.76       96.81       93.44       94.72       94.72       94.29       93.69       93.00    
        92.26       91.49       90.70       89.89       89.07       88.25       87.44       86.62       85.81       85.01    
        84.21       83.41       82.63       81.84       81.07       80.30       79.54       78.79       78.04       77.30    
        76.57       75.85       75.12       74.40       73.68       72.95       72.22       71.49       70.75       70.00    
  14  -1000.0       105.6       105.5       105.4       105.1       104.7       104.3       103.7       103.0       102.2    
        101.3       100.2       98.87       97.34       95.70       95.26       94.83       94.27       93.63       92.92    
        92.16       91.38       90.58       89.76       88.94       88.11       87.29       86.48       85.67       84.86    
        84.06       83.27       82.48       81.70       80.92       80.16       79.40       78.65       77.91       77.18    
        76.46       75.75       75.04       74.33       73.62       72.91       72.19       71.47       70.74       70.00    
  15  -1000.0       105.6       105.5       105.3       105.0       104.7       104.2       103.6       103.0       102.2    
        101.3       100.3       99.10       97.85       96.64       95.77       95.05       94.35       93.62       92.87    
        92.08       91.28       90.46       89.63       88.80       87.97       87.14       86.32       85.51       84.70    
        83.90       83.11       82.32       81.54       80.77       80.00       79.24       78.50       77.77       77.05    
        76.34       75.64       74.95       74.25       73.56       72.86       72.15       71.44       70.73       70.00    
  16  -1000.0       105.5       105.4       105.2       105.0       104.6       104.1       103.6       102.9       102.2    
        101.3       100.4       99.30       98.20       97.11       96.12       95.26       94.44       93.64       92.83    
        92.01       91.18       90.35       89.50       88.66       87.81       86.98       86.15       85.34       84.53    
        83.73       82.94       82.15       81.37       80.59       79.82       79.07       78.33       77.60       76.89    
        76.20       75.52       74.85       74.17       73.49       72.81       72.12       71.42       70.71       70.00    
  17  -1000.0       105.4       105.3       105.2       104.9       104.5       104.1       103.5       102.9       102.2    
        101.3       100.4       99.45       98.42       97.38       96.35       95.41       94.52       93.66       92.80    
        91.95       91.09       90.22       89.36       88.50       87.65       86.81       85.98       85.16       84.35    
        83.55       82.75       81.96       81.18       80.40       79.63       78.87       78.13       77.41       76.72    
        76.05       75.39       74.74       74.08       73.43       72.76       72.08       71.40       70.70       70.00    
  18  -1000.0       105.3       105.2       105.1       104.8       104.5       104.0       103.5       102.9       102.1    
        101.3       100.5       99.53       98.54       97.52       96.47       95.49       94.56       93.66       92.76    
        91.87       90.98       90.09       89.21       88.34       87.47       86.62       85.79       84.96       84.15    
        83.35       82.56       81.77       80.98       80.20       79.42       78.65       77.91       77.19       76.52    
        75.87       75.25       74.63       74.00       73.36       72.71       72.05       71.38       70.69       70.00    
  19  -1000.0       105.2       105.2       105.0       104.7       104.4       103.9       103.4       102.8       102.1    
        101.3       100.5       99.55       98.58       97.57       96.51       95.51       94.56       93.64       92.72    
        91.78       90.85       89.94       89.04       88.15       87.28       86.42       85.58       84.76       83.95    
        83.14       82.35       81.56       80.77       79.98       79.20       78.41       77.64       76.92       76.28    
        75.68       75.10       74.51       73.92       73.30       72.67       72.03       71.36       70.69       70.00    
  20  -1000.0       105.1       105.1       104.9       104.6       104.3       103.8       103.3       102.7       102.0    
        101.2       100.4       99.51       98.55       97.54       96.48       95.48       94.53       93.62       92.67    
        91.67       90.70       89.76       88.84       87.94       87.06       86.20       85.36       84.54       83.73    
        82.93       82.14       81.35       80.56       79.77       78.96       78.14       77.32       76.56       75.99    
        75.47       74.95       74.41       73.84       73.26       72.64       72.01       71.35       70.68       70.00    
  21  -1000.0       105.0       105.0       104.8       104.5       104.1       103.7       103.2       102.6       101.9    
        101.1       100.3       99.41       98.46       97.45       96.38       95.38       94.44       93.62       92.65    
        91.53       90.51       89.54       88.61       87.71       86.83       85.97       85.13       84.31       83.50    
        82.70       81.92       81.13       80.35       79.55       78.73       77.86       76.94       76.02       75.64    
        75.26       74.82       74.33       73.79       73.23       72.63       72.01       71.36       70.69       70.00    
  22  -1000.0       104.9       104.8       104.6       104.4       104.0       103.6       103.0       102.4       101.7    
        101.0       100.2       99.26       98.30       97.29       96.21       95.19       94.24       93.40       92.42    
        91.28       90.25       89.27       88.34       87.44       86.57       85.71       84.87       84.05       83.26    
        82.47       81.69       80.92       80.15       79.35       78.53       77.63       76.55       74.92       75.28    
        75.10       74.73       74.28       73.78       73.23       72.65       72.03       71.38       70.70       70.00    
  23  -1000.0       104.8       104.7       104.5       104.2       103.8       103.4       102.8       102.2       101.5    
        100.8       99.95       99.05       98.09       97.06       95.97       94.93       93.93       92.97       91.97    
        90.93       89.92       88.96       88.03       87.15       86.29       85.43       84.60       83.79       83.00    
        82.23       81.47       80.72       79.96       79.19       78.40       77.57       76.69       75.81       75.47    
        75.13       74.74       74.29       73.80       73.27       72.69       72.08       71.42       70.73       70.00    
  24  -1000.0       104.7       104.6       104.4       104.1       103.7       103.2       102.6       102.0       101.3    
        100.5       99.70       98.80       97.82       96.79       95.68       94.61       93.58       92.56       91.55    
        90.54       89.54       88.59       87.68       86.82       86.02       85.14       84.30       83.50       82.73    
        81.98       81.25       80.52       79.79       79.06       78.32       77.57       76.83       76.15       75.66    
        75.23       74.80       74.35       73.86       73.34       72.78       72.17       71.50       70.78       70.00    
  25  -1000.0       104.6       104.5       104.2       103.9       103.5       103.0       102.4       101.7       101.0    
        100.3       99.40       98.49       97.51       96.46       95.34       94.25       93.19       92.15       91.12    
        90.11       89.12       88.16       87.25       86.44       85.83       84.81       83.97       83.19       82.45    
        81.73       81.02       80.33       79.63       78.94       78.25       77.57       76.91       76.30       75.79    
        75.33       74.89       74.44       73.97       73.47       72.92       72.31       71.64       70.89       70.00    
  26  -1000.0       105.0       104.9       104.7       104.4       104.0       103.5       103.0       102.3       101.6    
        100.9       100.0       99.14       98.16       97.11       95.98       94.88       93.81       92.76       91.73    
        90.72       89.73       88.78       87.86       87.00       86.19       85.30       84.45       83.64       82.86    
        82.10       81.35       80.61       79.88       79.15       78.43       77.71       77.03       76.40       75.85    
        75.35       74.87       74.39       73.89       73.36       72.79       72.18       71.51       70.78       70.00    
  27  -1000.0       105.4       105.3       105.1       104.8       104.5       104.0       103.5       102.9       102.2    
        101.5       100.6       99.75       98.77       97.72       96.59       95.48       94.41       93.35       92.32    
        91.30       90.31       89.35       88.42       87.52       86.64       85.76       84.90       84.06       83.25    
        82.46       81.68       80.90       80.13       79.36       78.60       77.84       77.10       76.44       75.86    
        75.35       74.86       74.36       73.84       73.29       72.71       72.09       71.43       70.73       70.00    
  28  -1000.0       105.8       105.7       105.5       105.3       104.9       104.5       104.0       103.4       102.7    
        102.0       101.2       100.3       99.34       98.29       97.16       96.05       94.97       93.90       92.87    
        91.85       90.85       89.88       88.93       88.00       87.09       86.20       85.32       84.47       83.63    
        82.81       82.00       81.19       80.39       79.58       78.76       77.94       77.12       76.38       75.83    
        75.34       74.86       74.35       73.82       73.26       72.67       72.04       71.39       70.70       70.00    
  29  -1000.0       106.2       106.1       105.9       105.7       105.4       104.9       104.4       103.9       103.2    
        102.5       101.7       100.8       99.86       98.82       97.68       96.58       95.49       94.43       93.38    
        92.36       91.36       90.37       89.41       88.46       87.53       86.62       85.73       84.86       84.00    
        83.15       82.32       81.49       80.65       79.80       78.94       78.03       77.08       76.13       75.73    
        75.33       74.88       74.38       73.84       73.27       72.66       72.03       71.37       70.69       70.00    
  30  -1000.0       106.6       106.5       106.3       106.1       105.8       105.4       104.9       104.3       103.7    
        103.0       102.2       101.3       100.3       99.30       98.17       97.06       95.98       94.91       93.86    
        92.83       91.82       90.83       89.86       88.89       87.95       87.02       86.11       85.23       84.35    
        83.49       82.63       81.78       80.92       80.05       79.15       78.18       77.03       75.33       75.62    
        75.37       74.95       74.44       73.89       73.30       72.68       72.04       71.38       70.69       70.00    
  31  -1000.0       106.9       106.8       106.7       106.4       106.1       105.7       105.3       104.7       104.1    
        103.4       102.6       101.7       100.8       99.74       98.62       97.51       96.42       95.35       94.30    
        93.27       92.26       91.26       90.27       89.30       88.34       87.40       86.48       85.58       84.69    
        83.81       82.94       82.07       81.20       80.32       79.42       78.48       77.49       76.50       76.05    
        75.60       75.10       74.55       73.97       73.36       72.72       72.06       71.39       70.70       70.00    
  32  -1000.0       107.2       107.2       107.0       106.8       106.5       106.1       105.6       105.1       104.5    
        103.8       103.0       102.1       101.2       100.1       99.02       97.92       96.83       95.77       94.71    
        93.68       92.66       91.65       90.65       89.67       88.70       87.75       86.82       85.91       85.01    
        84.12       83.24       82.37       81.49       80.61       79.73       78.83       77.94       77.11       76.46    
        75.88       75.29       74.69       74.07       73.43       72.77       72.10       71.41       70.71       70.00    
  33  -1000.0       107.5       107.5       107.3       107.1       106.8       106.4       106.0       105.4       104.8    
        104.1       103.3       102.5       101.5       100.5       99.40       98.30       97.21       96.14       95.09    
        94.05       93.03       92.01       91.01       90.02       89.05       88.09       87.15       86.23       85.32    
        84.42       83.53       82.66       81.78       80.91       80.04       79.17       78.32       77.53       76.81    
        76.14       75.50       74.85       74.19       73.52       72.84       72.15       71.44       70.73       70.00    
  34  -1000.0       107.8       107.7       107.6       107.4       107.1       106.7       106.3       105.7       105.1    
        104.4       103.7       102.8       101.9       100.9       99.74       98.64       97.56       96.49       95.43    
        94.39       93.37       92.35       91.34       90.35       89.37       88.40       87.46       86.53       85.61    
        84.71       83.82       82.94       82.06       81.19       80.33       79.48       78.65       77.86       77.11    
        76.39       75.70       75.01       74.32       73.62       72.91       72.20       71.48       70.74       70.00    
  35  -1000.0       108.1       108.0       107.8       107.6       107.3       107.0       106.5       106.0       105.4    
        104.7       104.0       103.1       102.2       101.2       100.0       98.95       97.87       96.80       95.75    
        94.71       93.68       92.66       91.65       90.65       89.66       88.70       87.75       86.81       85.89    
        84.99       84.09       83.21       82.33       81.46       80.60       79.76       78.93       78.13       77.36    
        76.61       75.88       75.16       74.44       73.72       72.99       72.25       71.51       70.76       70.00    
  36  -1000.0       108.3       108.2       108.1       107.9       107.6       107.2       106.8       106.2       105.7    
        105.0       104.2       103.4       102.4       101.4       100.3       99.23       98.16       97.09       96.04    
        95.00       93.97       92.95       91.93       90.93       89.94       88.97       88.02       87.08       86.16    
        85.25       84.35       83.46       82.58       81.71       80.85       80.01       79.18       78.37       77.58    
        76.81       76.06       75.31       74.56       73.81       73.06       72.31       71.55       70.78       70.00    
  37  -1000.0       108.5       108.4       108.3       108.1       107.8       107.4       107.0       106.5       105.9    
        105.2       104.4       103.6       102.7       101.7       100.6       99.49       98.42       97.35       96.30    
        95.26       94.23       93.21       92.19       91.19       90.20       89.23       88.27       87.33       86.40    
        85.49       84.59       83.70       82.82       81.94       81.08       80.23       79.40       78.58       77.78    
        76.99       76.21       75.44       74.67       73.91       73.14       72.36       71.58       70.80       70.00    
  38  -1000.0       108.7       108.6       108.5       108.3       108.0       107.6       107.2       106.7       106.1    
        105.4       104.7       103.8       102.9       101.9       100.8       99.72       98.65       97.59       96.54    
        95.50       94.47       93.45       92.43       91.43       90.44       89.46       88.50       87.56       86.63    
        85.72       84.81       83.92       83.03       82.16       81.29       80.44       79.60       78.77       77.96    
        77.15       76.36       75.57       74.78       73.99       73.20       72.41       71.62       70.81       70.00    
  39  -1000.0       108.8       108.8       108.6       108.4       108.1       107.8       107.3       106.8       106.2    
        105.6       104.8       104.0       103.1       102.1       101.0       99.92       98.86       97.80       96.75    
        95.71       94.68       93.66       92.65       91.65       90.65       89.68       88.72       87.78       86.85    
        85.93       85.02       84.12       83.23       82.35       81.48       80.62       79.77       78.94       78.11    
        77.29       76.48       75.68       74.87       74.07       73.27       72.46       71.65       70.83       70.00    
  40  -1000.0       109.0       108.9       108.8       108.6       108.3       107.9       107.5       107.0       106.4    
        105.7       105.0       104.2       103.3       102.3       101.2       100.1       99.04       97.98       96.94    
        95.90       94.87       93.86       92.85       91.84       90.85       89.88       88.92       87.97       87.04    
        86.11       85.20       84.30       83.40       82.52       81.65       80.78       79.93       79.09       78.25    
        77.42       76.60       75.78       74.96       74.14       73.33       72.50       71.68       70.84       70.00    
  41  -1000.0       109.1       109.0       108.9       108.7       108.4       108.0       107.6       107.1       106.5    
        105.9       105.1       104.3       103.4       102.4       101.3       100.3       99.20       98.15       97.11    
        96.07       95.05       94.03       93.02       92.02       91.03       90.06       89.09       88.15       87.21    
        86.28       85.37       84.46       83.56       82.68       81.80       80.93       80.07       79.22       78.37    
        77.53       76.70       75.87       75.04       74.21       73.38       72.54       71.70       70.86       70.00    
  42  -1000.0       109.3       109.1       109.0       108.8       108.5       108.1       107.7       107.2       106.6    
        106.0       105.2       104.4       103.5       102.5       101.5       100.4       99.34       98.29       97.25    
        96.22       95.20       94.18       93.17       92.18       91.19       90.21       89.25       88.30       87.36    
        86.43       85.51       84.60       83.70       82.81       81.93       81.06       80.19       79.33       78.48    
        77.63       76.79       75.95       75.11       74.27       73.42       72.58       71.73       70.87       70.00    
  43  -1000.0       109.4       109.3       109.1       108.8       108.5       108.2       107.8       107.3       106.7    
        106.1       105.3       104.5       103.6       102.6       101.6       100.5       99.46       98.42       97.38    
        96.35       95.33       94.31       93.31       92.31       91.33       90.35       89.39       88.43       87.49    
        86.56       85.64       84.73       83.83       82.93       82.05       81.17       80.30       79.43       78.57    
        77.72       76.86       76.01       75.17       74.32       73.46       72.61       71.75       70.88       70.00    
  44  -1000.0     -1000.0       109.4       109.2       108.9       108.6       108.2       107.8       107.3       106.8    
        106.1       105.4       104.6       103.7       102.7       101.7       100.6       99.57       98.52       97.49    
        96.46       95.44       94.43       93.42       92.43       91.44       90.47       89.50       88.55       87.61    
        86.67       85.75       84.84       83.93       83.03       82.14       81.26       80.38       79.51       78.65    
        77.79       76.93       76.07       75.22       74.36       73.50       72.64       71.77       70.89       70.00    
  45  -1000.0     -1000.0     -1000.0       109.2       109.0       108.6       108.3       107.8       107.4       106.8    
        106.2       105.5       104.7       103.8       102.8       101.7       100.7       99.65       98.61       97.57    
        96.55       95.53       94.52       93.52       92.52       91.54       90.56       89.60       88.65       87.70    
        86.77       85.84       84.93       84.02       83.12       82.22       81.34       80.46       79.58       78.71    
        77.85       76.98       76.12       75.26       74.39       73.53       72.66       71.78       70.89       70.00    
  46  -1000.0     -1000.0     -1000.0     -1000.0       109.0       108.7       108.2       107.8       107.4       106.8    
        106.2       105.5       104.7       103.8       102.9       101.8       100.8       99.71       98.68       97.64    
        96.62       95.60       94.59       93.59       92.60       91.61       90.64       89.68       88.72       87.78    
        86.84       85.91       85.00       84.09       83.18       82.29       81.40       80.52       79.64       78.76    
        77.89       77.03       76.16       75.29       74.42       73.55       72.67       71.79       70.90       70.00    
  47  -1000.0     -1000.0     -1000.0     -1000.0     -1000.0       108.7       108.3       107.8       107.3       106.8    
        106.2       105.5       104.7       103.9       102.9       101.9       100.8       99.76       98.73       97.70    
        96.67       95.66       94.65       93.65       92.66       91.67       90.70       89.73       88.78       87.83    
        86.90       85.97       85.05       84.14       83.23       82.34       81.44       80.56       79.68       78.80    
        77.93       77.06       76.19       75.32       74.44       73.57       72.69       71.80       70.91       70.00    
  48  -1000.0     -1000.0     -1000.0     -1000.0     -1000.0     -1000.0       108.3       107.9       107.3       106.8    
        106.2       105.5       104.7       103.9       102.9       101.9       100.8       99.79       98.76       97.73    
        96.71       95.69       94.69       93.69       92.69       91.71       90.74       89.77       88.82       87.87    
        86.93       86.00       85.08       84.17       83.27       82.37       81.48       80.59       79.71       78.83    
        77.95       77.08       76.21       75.33       74.46       73.58       72.70       71.81       70.91       70.00    
  49  -1000.0     -1000.0     -1000.0     -1000.0     -1000.0     -1000.0     -1000.0       107.9       107.3       106.7    
        106.2       105.5       104.7       103.9       102.9       101.9       100.8       99.81       98.78       97.75    
        96.73       95.71       94.70       93.70       92.71       91.73       90.76       89.79       88.84       87.89    
        86.95       86.02       85.10       84.19       83.28       82.38       81.49       80.60       79.72       78.84    
        77.96       77.09       76.22       75.34       74.46       73.58       72.70       71.81       70.91       70.00    
  50  -1000.0     -1000.0     -1000.0     -1000.0     -1000.0     -1000.0     -1000.0     -1000.0     -1000.0     -1000.0    
      -1000.0     -1000.0     -1000.0     -1000.0     -1000.0     -1000.0     -1000.0     -1000.0     -1000.0     -1000.0    
      -1000.0     -1000.0     -1000.0     -1000.0     -1000.0     -1000.0     -1000.0     -1000.0     -1000.0     -1000.0    
      -1000.0     -1000.0     -1000.0     -1000.0     -1000.0     -1000.0     -1000.0     -1000.0     -1000.0     -1000.0    
      -1000.0     -1000.0     -1000.0     -1000.0     -1000.0     -1000.0     -1000.0     -1000.0     -1000.0       70.00    
1
              HEAD IN LAYER   3 AT END OF TIME STEP   1 IN STRESS PERIOD    1
  ---------------------------------------------------------------------------

            1           2           3           4           5           6           7           8           9          10
           11          12          13          14          15          16          17          18          19          20
           21          22          23          24          25          26          27          28          29          30
[...]
        90.93       89.92       88.96       88.03       87.15       86.29       85.43       84.60       83.79       83.00    
        82.23       81.47       80.72       79.96       79.19       78.40       77.57       76.69       75.81       75.47    
        75.13       74.74       74.29       73.80       73.27       72.69       72.08       71.42       70.73       70.00    
  24  -1000.0       104.7       104.6       104.4       104.1       103.7       103.2       102.6       102.0       101.3    
        100.5       99.70       98.80       97.82       96.79       95.68       94.61       93.58       92.56       91.55    
        90.54       89.54       88.59       87.68       86.82       86.02       85.14       84.30       83.50       82.73    
        81.98       81.25       80.52       79.79       79.06       78.32       77.57       76.83       76.15       75.66    
        75.23       74.80       74.35       73.86       73.34       72.78       72.17       71.50       70.78       70.00    
  25  -1000.0       104.6       104.5       104.2       103.9       103.5       103.0       102.4       101.8       101.0    
        100.3       99.40       98.49       97.51       96.46       95.34       94.25       93.19       92.15       91.12    
        90.11       89.12       88.16       87.25       86.44       85.83       84.82       83.97       83.19       82.45    
        81.73       81.02       80.33       79.63       78.94       78.25       77.57       76.91       76.30       75.79    
        75.33       74.89       74.44       73.97       73.47       72.92       72.31       71.64       70.89       70.00    
  26  -1000.0       105.0       104.9       104.7       104.4       104.0       103.5       103.0       102.3       101.6    
        100.9       100.0       99.14       98.16       97.11       95.98       94.88       93.81       92.76       91.73    
        90.72       89.73       88.78       87.86       87.00       86.19       85.30       84.45       83.64       82.86    
        82.10       81.35       80.61       79.88       79.15       78.43       77.71       77.03       76.40       75.85    
        75.35       74.87       74.39       73.89       73.36       72.79       72.18       71.51       70.78       70.00    
  27  -1000.0       105.4       105.3       105.1       104.8       104.5       104.0       103.5       102.9       102.2    
        101.5       100.6       99.75       98.77       97.72       96.59       95.48       94.41       93.35       92.32    
        91.30       90.31       89.35       88.42       87.52       86.64       85.76       84.90       84.06       83.25    
        82.46       81.68       80.90       80.13       79.36       78.60       77.84       77.10       76.44       75.86    
        75.35       74.86       74.36       73.84       73.29       72.71       72.09       71.43       70.73       70.00    
  28  -1000.0       105.8       105.7       105.5       105.3       104.9       104.5       104.0       103.4       102.7    
        102.0       101.2       100.3       99.34       98.29       97.16       96.05       94.97       93.90       92.87    
        91.85       90.85       89.88       88.93       88.00       87.09       86.20       85.32       84.47       83.63    
        82.81       82.00       81.19       80.39       79.58       78.76       77.94       77.12       76.38       75.83    
        75.34       74.86       74.35       73.82       73.26       72.67       72.04       71.39       70.70       70.00    
  29  -1000.0       106.2       106.1       105.9       105.7       105.4       104.9       104.4       103.9       103.2    
        102.5       101.7       100.8       99.86       98.82       97.68       96.58       95.49       94.43       93.38    
        92.36       91.36       90.37       89.41       88.46       87.53       86.62       85.73       84.86       84.00    
        83.15       82.32       81.49       80.65       79.80       78.94       78.03       77.08       76.13       75.73    
        75.33       74.88       74.38       73.84       73.27       72.66       72.03       71.37       70.69       70.00    
  30  -1000.0       106.6       106.5       106.3       106.1       105.8       105.4       104.9       104.3       103.7    
        103.0       102.2       101.3       100.3       99.30       98.17       97.06       95.98       94.91       93.86    
        92.83       91.82       90.83       89.86       88.89       87.95       87.02       86.11       85.23       84.35    
        83.49       82.63       81.78       80.92       80.05       79.15       78.18       77.03       75.33       75.62    
        75.37       74.95       74.44       73.89       73.30       72.68       72.04       71.38       70.69       70.00    
  31  -1000.0       106.9       106.8       106.7       106.4       106.1       105.7       105.3       104.7       104.1    
        103.4       102.6       101.7       100.8       99.74       98.62       97.51       96.42       95.35       94.30    
        93.27       92.26       91.26       90.27       89.30       88.34       87.40       86.48       85.58       84.69    
        83.81       82.94       82.07       81.20       80.32       79.42       78.48       77.49       76.50       76.05    
        75.60       75.10       74.55       73.97       73.36       72.72       72.06       71.39       70.70       70.00    
  32  -1000.0       107.2       107.2       107.0       106.8       106.5       106.1       105.6       105.1       104.5    
        103.8       103.0       102.1       101.2       100.1       99.02       97.92       96.83       95.76       94.71    
        93.68       92.66       91.65       90.65       89.67       88.70       87.75       86.82       85.91       85.01    
        84.12       83.24       82.37       81.49       80.61       79.73       78.83       77.94       77.11       76.46    
        75.88       75.29       74.69       74.07       73.43       72.77       72.10       71.41       70.71       70.00    
  33  -1000.0       107.5       107.5       107.3       107.1       106.8       106.4       106.0       105.4       104.8    
        104.1       103.3       102.5       101.5       100.5       99.40       98.30       97.21       96.14       95.09    
        94.05       93.03       92.01       91.01       90.02       89.05       88.09       87.15       86.23       85.32    
        84.42       83.53       82.66       81.78       80.91       80.04       79.17       78.32       77.53       76.81    
        76.14       75.50       74.85       74.19       73.52       72.84       72.15       71.44       70.73       70.00    
  34  -1000.0       107.8       107.7       107.6       107.4       107.1       106.7       106.3       105.7       105.1    
        104.4       103.7       102.8       101.9       100.9       99.74       98.64       97.56       96.49       95.43    
        94.39       93.37       92.35       91.34       90.35       89.37       88.40       87.46       86.53       85.61    
        84.71       83.82       82.94       82.06       81.19       80.33       79.48       78.65       77.86       77.11    
        76.39       75.70       75.01       74.32       73.62       72.91       72.20       71.48       70.74       70.00    
  35  -1000.0       108.1       108.0       107.8       107.6       107.3       107.0       106.5       106.0       105.4    
        104.7       104.0       103.1       102.2       101.2       100.0       98.95       97.87       96.80       95.75    
        94.71       93.68       92.66       91.65       90.65       89.66       88.70       87.75       86.81       85.89    
        84.99       84.09       83.21       82.33       81.46       80.60       79.76       78.93       78.13       77.36    
        76.61       75.88       75.16       74.44       73.72       72.99       72.25       71.51       70.76       70.00    
  36  -1000.0       108.3       108.2       108.1       107.9       107.6       107.2       106.8       106.2       105.7    
        105.0       104.2       103.4       102.4       101.4       100.3       99.23       98.16       97.09       96.04    
        95.00       93.97       92.95       91.93       90.93       89.94       88.97       88.02       87.08       86.16    
        85.25       84.35       83.46       82.58       81.71       80.85       80.01       79.18       78.37       77.58    
        76.81       76.06       75.31       74.56       73.81       73.06       72.31       71.55       70.78       70.00    
  37  -1000.0       108.5       108.4       108.3       108.1       107.8       107.4       107.0       106.5       105.9    
        105.2       104.4       103.6       102.7       101.7       100.6       99.49       98.42       97.35       96.30    
        95.26       94.23       93.21       92.19       91.19       90.20       89.23       88.27       87.33       86.40    
        85.49       84.59       83.70       82.82       81.94       81.08       80.23       79.40       78.58       77.78    
        76.99       76.21       75.44       74.67       73.91       73.14       72.36       71.58       70.80       70.00    
  38  -1000.0       108.7       108.6       108.5       108.3       108.0       107.6       107.2       106.7       106.1    
        105.4       104.7       103.8       102.9       101.9       100.8       99.72       98.65       97.59       96.54    
        95.50       94.47       93.45       92.43       91.43       90.44       89.46       88.50       87.56       86.63    
        85.72       84.81       83.92       83.03       82.16       81.29       80.44       79.60       78.77       77.96    
        77.15       76.36       75.57       74.78       73.99       73.20       72.41       71.62       70.81       70.00    
  39  -1000.0       108.8       108.8       108.6       108.4       108.1       107.8       107.3       106.8       106.2    
        105.6       104.8       104.0       103.1       102.1       101.0       99.92       98.86       97.80       96.75    
        95.71       94.68       93.66       92.65       91.65       90.65       89.68       88.72       87.78       86.85    
        85.93       85.02       84.12       83.23       82.35       81.48       80.62       79.77       78.94       78.11    
        77.29       76.48       75.68       74.87       74.07       73.27       72.46       71.65       70.83       70.00    
  40  -1000.0       109.0       108.9       108.8       108.6       108.3       107.9       107.5       107.0       106.4    
        105.7       105.0       104.2       103.3       102.3       101.2       100.1       99.04       97.98       96.94    
        95.90       94.87       93.86       92.85       91.84       90.85       89.88       88.92       87.97       87.04    
        86.11       85.20       84.30       83.40       82.52       81.65       80.78       79.93       79.09       78.25    
        77.42       76.60       75.78       74.96       74.14       73.33       72.50       71.68       70.84       70.00    
  41  -1000.0       109.1       109.0       108.9       108.7       108.4       108.0       107.6       107.1       106.5    
        105.9       105.1       104.3       103.4       102.4       101.3       100.3       99.20       98.15       97.11    
        96.07       95.05       94.03       93.02       92.02       91.03       90.06       89.09       88.15       87.21    
        86.28       85.37       84.46       83.56       82.68       81.80       80.93       80.07       79.22       78.37    
        77.53       76.70       75.87       75.04       74.21       73.38       72.54       71.70       70.86       70.00    
  42  -1000.0     -1000.0       109.1       109.0       108.8       108.5       108.1       107.7       107.2       106.6    
        106.0       105.2       104.4       103.5       102.5       101.5       100.4       99.34       98.29       97.25    
        96.22       95.20       94.18       93.17       92.18       91.19       90.21       89.25       88.30       87.36    
        86.43       85.51       84.60       83.70       82.81       81.93       81.06       80.19       79.33       78.48    
        77.63       76.79       75.95       75.11       74.27       73.42       72.58       71.73       70.87       70.00    
  43  -1000.0     -1000.0     -1000.0       109.1       108.8       108.5       108.2       107.8       107.3       106.7    
        106.1       105.3       104.5       103.6       102.6       101.6       100.5       99.46       98.42       97.38    
        96.35       95.33       94.31       93.31       92.31       91.33       90.35       89.39       88.43       87.49    
        86.56       85.64       84.73       83.83       82.93       82.05       81.17       80.30       79.43       78.57    
        77.72       76.86       76.01       75.17       74.32       73.46       72.61       71.75       70.88       70.00    
  44  -1000.0     -1000.0     -1000.0     -1000.0       108.9       108.6       108.2       107.8       107.3       106.8    
        106.1       105.4       104.6       103.7       102.7       101.7       100.6       99.57       98.52       97.49    
        96.46       95.44       94.43       93.42       92.43       91.44       90.47       89.50       88.55       87.61    
        86.67       85.75       84.84       83.93       83.03       82.14       81.26       80.38       79.51       78.65    
        77.79       76.93       76.07       75.22       74.36       73.50       72.64       71.77       70.89       70.00    
  45  -1000.0     -1000.0     -1000.0     -1000.0     -1000.0       108.6       108.3       107.8       107.4       106.8    
        106.2       105.5       104.7       103.8       102.8       101.7       100.7       99.65       98.61       97.57    
        96.55       95.53       94.52       93.52       92.52       91.54       90.56       89.60       88.65       87.70    
        86.77       85.84       84.93       84.02       83.12       82.22       81.34       80.46       79.58       78.71    
        77.85       76.98       76.12       75.26       74.39       73.53       72.66       71.78       70.89       70.00    
  46  -1000.0     -1000.0     -1000.0     -1000.0     -1000.0     -1000.0       108.2       107.8       107.4       106.8    
        106.2       105.5       104.7       103.8       102.9       101.8       100.8       99.71       98.68       97.64    
        96.62       95.60       94.59       93.59       92.60       91.61       90.64       89.68       88.72       87.78    
        86.84       85.91       85.00       84.09       83.18       82.29       81.40       80.52       79.64       78.76    
        77.89       77.03       76.16       75.29       74.42       73.55       72.67       71.79       70.90       70.00    
  47  -1000.0     -1000.0     -1000.0     -1000.0     -1000.0     -1000.0     -1000.0       107.8       107.3       106.8    
        106.2       105.5       104.7       103.9       102.9       101.9       100.8       99.76       98.73       97.70    
        96.67       95.66       94.65       93.65       92.66       91.67       90.70       89.73       88.78       87.83    
        86.90       85.97       85.05       84.14       83.23       82.34       81.44       80.56       79.68       78.80    
        77.93       77.06       76.19       75.32       74.44       73.57       72.69       71.80       70.91       70.00    
  48  -1000.0     -1000.0     -1000.0     -1000.0     -1000.0     -1000.0     -1000.0     -1000.0       107.3       106.8    
        106.2       105.5       104.7       103.9       102.9       101.9       100.8       99.79       98.76       97.73    
        96.71       95.69       94.69       93.69       92.69       91.71       90.74       89.77       88.82       87.87    
        86.93       86.00       85.08       84.17       83.27       82.37       81.48       80.59       79.71       78.83    
        77.95       77.08       76.21       75.33       74.46       73.58       72.70       71.81       70.91       70.00    
  49  -1000.0     -1000.0     -1000.0     -1000.0     -1000.0     -1000.0     -1000.0     -1000.0     -1000.0       106.7    
        106.2       105.5       104.7       103.9       102.9       101.9       100.8       99.81       98.78       97.75    
        96.73       95.71       94.70       93.70       92.71       91.73       90.76       89.79       88.84       87.89    
        86.95       86.02       85.10       84.19       83.28       82.38       81.49       80.60       79.72       78.84    
        77.96       77.09       76.22       75.34       74.46       73.58       72.70       71.81       70.91       70.00    
  50  -1000.0     -1000.0     -1000.0     -1000.0     -1000.0     -1000.0     -1000.0     -1000.0     -1000.0     -1000.0    
      -1000.0     -1000.0     -1000.0     -1000.0     -1000.0     -1000.0     -1000.0     -1000.0     -1000.0     -1000.0    
      -1000.0     -1000.0     -1000.0     -1000.0     -1000.0     -1000.0     -1000.0     -1000.0     -1000.0     -1000.0    
      -1000.0     -1000.0     -1000.0     -1000.0     -1000.0     -1000.0     -1000.0     -1000.0     -1000.0     -1000.0    
      -1000.0     -1000.0     -1000.0     -1000.0     -1000.0     -1000.0     -1000.0     -1000.0     -1000.0       70.00    

 HEAD WILL BE SAVED ON UNIT   51 AT END OF TIME STEP    1, STRESS PERIOD    1

 DRAWDOWN WILL BE SAVED ON UNIT   52 AT END OF TIME STEP    1, STRESS PERIOD    1
1
  VOLUMETRIC BUDGET FOR ENTIRE MODEL AT END OF TIME STEP    1, STRESS PERIOD   1
  ------------------------------------------------------------------------------

     CUMULATIVE VOLUMES      L**3       RATES FOR THIS TIME STEP      L**3/T
     ------------------                 ------------------------

           IN:                                      IN:
           ---                                      ---
             STORAGE =           0.0000               STORAGE =           0.0000
       CONSTANT HEAD =           0.0000         CONSTANT HEAD =           0.0000
               WELLS =         375.0000                 WELLS =         375.0000
       RIVER LEAKAGE =         829.4607         RIVER LEAKAGE =         829.4607
                  ET =           0.0000                    ET =           0.0000
            RECHARGE =       33199.9961              RECHARGE =       33199.9961

            TOTAL IN =       34404.4570              TOTAL IN =       34404.4570

          OUT:                                     OUT:
          ----                                     ----
             STORAGE =           0.0000               STORAGE =           0.0000
       CONSTANT HEAD =       13203.8770         CONSTANT HEAD =       13203.8770
               WELLS =        7500.0000                 WELLS =        7500.0000
       RIVER LEAKAGE =       12425.9033         RIVER LEAKAGE =       12425.9033
                  ET =        1274.6586                    ET =        1274.6586
            RECHARGE =           0.0000              RECHARGE =           0.0000

           TOTAL OUT =       34404.4414             TOTAL OUT =       34404.4414

            IN - OUT =       1.5625E-02              IN - OUT =       1.5625E-02

 PERCENT DISCREPANCY =           0.00     PERCENT DISCREPANCY =           0.00






         TIME SUMMARY AT END OF TIME STEP    1 IN STRESS PERIOD    1
                    SECONDS     MINUTES      HOURS       DAYS        YEARS
                    -----------------------------------------------------------
   TIME STEP LENGTH  86400.      1440.0      24.000      1.0000     2.73785E-03
 STRESS PERIOD TIME  86400.      1440.0      24.000      1.0000     2.73785E-03
         TOTAL TIME  86400.      1440.0      24.000      1.0000     2.73785E-03
1

 Run end date and time (yyyy/mm/dd hh:mm:ss): 2026/02/25  7:15:30
 Elapsed run time: 16.835 Seconds

