                                  MODFLOW-2005     
      U.S. GEOLOGICAL SURVEY MODULAR FINITE-DIFFERENCE GROUND-WATER FLOW MODEL
                            VERSION 1.12.00 2/3/2017

 LIST FILE: static_ensemble_S2wel_1113111.list
                         UNIT    2

 OPENING static_ensemble_S2wel_1113111.dis
 FILE TYPE:DIS   UNIT   11   STATUS:OLD    
 FORMAT:FORMATTED              ACCESS:SEQUENTIAL          

 OPENING static_ensemble_S2wel_1113111.bas
 FILE TYPE:BAS6   UNIT   13   STATUS:OLD    
 FORMAT:FORMATTED              ACCESS:SEQUENTIAL          

 OPENING static_ensemble_S2wel_1113111.lpf
 FILE TYPE:LPF   UNIT   15   STATUS:OLD    
 FORMAT:FORMATTED              ACCESS:SEQUENTIAL          

 OPENING static_ensemble_S2wel_1113111.evt
 FILE TYPE:EVT   UNIT   22   STATUS:OLD    
 FORMAT:FORMATTED              ACCESS:SEQUENTIAL          

 OPENING static_ensemble_S2wel_1113111.rch
 FILE TYPE:RCH   UNIT   19   STATUS:OLD    
 FORMAT:FORMATTED              ACCESS:SEQUENTIAL          

 OPENING static_ensemble_S2wel_1113111.riv
 FILE TYPE:RIV   UNIT   18   STATUS:OLD    
 FORMAT:FORMATTED              ACCESS:SEQUENTIAL          

 OPENING static_ensemble_S2wel_1113111.wel
 FILE TYPE:WEL   UNIT   20   STATUS:OLD    
 FORMAT:FORMATTED              ACCESS:SEQUENTIAL          

 OPENING static_ensemble_S2wel_1113111.oc
 FILE TYPE:OC   UNIT   14   STATUS:OLD    
 FORMAT:FORMATTED              ACCESS:SEQUENTIAL          

 OPENING static_ensemble_S2wel_1113111.pcg
 FILE TYPE:PCG   UNIT   27   STATUS:OLD    
 FORMAT:FORMATTED              ACCESS:SEQUENTIAL          

 OPENING static_ensemble_S2wel_1113111.cbc
 FILE TYPE:DATA(BINARY)   UNIT   53   STATUS:REPLACE
 FORMAT:UNFORMATTED            ACCESS:STREAM              

 OPENING static_ensemble_S2wel_1113111.hds
 FILE TYPE:DATA(BINARY)   UNIT   51   STATUS:REPLACE
 FORMAT:UNFORMATTED            ACCESS:STREAM              

 OPENING static_ensemble_S2wel_1113111.ddn
 FILE TYPE:DATA(BINARY)   UNIT   52   STATUS:REPLACE
 FORMAT:UNFORMATTED            ACCESS:STREAM              

 BAS -- BASIC PACKAGE, VERSION 7, 5/2/2005 INPUT READ FROM UNIT   13
 
 MODFLOW was compiled using mixed precision
 Precision of REAL variables:           6
 Precision of DOUBLE PRECISION variables:          15

 DISCRETIZATION INPUT DATA READ FROM UNIT   11
 # DIS package for MODFLOW-2005 generated by Flopy 3.10.0
    3 LAYERS        50 ROWS        50 COLUMNS
    1 STRESS PERIOD(S) IN SIMULATION
 MODEL TIME UNIT IS DAYS
 MODEL LENGTH UNIT IS METERS
  Confining bed flag for each layer:
   0   0   0

                     DELR =   1000.00    

                     DELC =   1000.00    



           TOP ELEVATION OF LAYER 1
 READING ON UNIT   11 WITH FORMAT: (50E15.6)           



             MODEL LAYER BOTTOM EL. FOR LAYER   1
 READING ON UNIT   11 WITH FORMAT: (50E15.6)           



             MODEL LAYER BOTTOM EL. FOR LAYER   2
 READING ON UNIT   11 WITH FORMAT: (50E15.6)           



             MODEL LAYER BOTTOM EL. FOR LAYER   3
 READING ON UNIT   11 WITH FORMAT: (50E15.6)           


 STRESS PERIOD     LENGTH       TIME STEPS     MULTIPLIER FOR DELT    SS FLAG
 ----------------------------------------------------------------------------
        1         1.000000          1                    1.000         SS

 STEADY-STATE SIMULATION



 
 # BAS6 package for MODFLOW-2005 generated by Flopy 3.10.0                       
 THE FREE FORMAT OPTION HAS BEEN SELECTED



                     BOUNDARY ARRAY FOR LAYER   1
 READING ON UNIT   13 WITH FORMAT: (50I10)             



                     BOUNDARY ARRAY FOR LAYER   2
 READING ON UNIT   13 WITH FORMAT: (50I10)             



                     BOUNDARY ARRAY FOR LAYER   3
 READING ON UNIT   13 WITH FORMAT: (50I10)             

 AQUIFER HEAD WILL BE SET TO  -999.99     AT ALL NO-FLOW NODES (IBOUND=0).



                       INITIAL HEAD FOR LAYER   1
 READING ON UNIT   13 WITH FORMAT: (50E15.6)           



                       INITIAL HEAD FOR LAYER   2
 READING ON UNIT   13 WITH FORMAT: (50E15.6)           



                       INITIAL HEAD FOR LAYER   3
 READING ON UNIT   13 WITH FORMAT: (50E15.6)           
 # OC package for MODFLOW-2005 generated by Flopy 3.10.0

 OUTPUT CONTROL IS SPECIFIED ONLY AT TIME STEPS FOR WHICH OUTPUT IS DESIRED
 COMPACT CELL-BY-CELL BUDGET FILES WILL BE WRITTEN
 AUXILIARY DATA WILL BE SAVED IN CELL-BY-CELL BUDGET FILES
 HEAD PRINT FORMAT CODE IS   0    DRAWDOWN PRINT FORMAT CODE IS   0
 HEADS WILL BE SAVED ON UNIT   51    DRAWDOWNS WILL BE SAVED ON UNIT   52

 LPF -- LAYER-PROPERTY FLOW PACKAGE, VERSION 7, 5/2/2005
         INPUT READ FROM UNIT   15
 # LPF package for MODFLOW-2005 generated by Flopy 3.10.0
 CELL-BY-CELL FLOWS WILL BE SAVED ON UNIT   53
 HEAD AT CELLS THAT CONVERT TO DRY= -1.00000E+30
 No named parameters
 STORAGECOEFFICIENT OPTION:
 Read storage coefficient rather than specific storage

   LAYER FLAGS:
 LAYER       LAYTYP        LAYAVG         CHANI        LAYVKA        LAYWET
 ---------------------------------------------------------------------------
    1             1             0     1.000E+00             0             0
    2             1             0     1.000E+00             0             0
    3             1             0     1.000E+00             0             0

   INTERPRETATION OF LAYER FLAGS:
                        INTERBLOCK     HORIZONTAL    DATA IN
         LAYER TYPE   TRANSMISSIVITY   ANISOTROPY   ARRAY VKA   WETTABILITY
 LAYER      (LAYTYP)      (LAYAVG)       (CHANI)      (LAYVKA)      (LAYWET)
 ---------------------------------------------------------------------------
    1   CONVERTIBLE      HARMONIC     1.000E+00    VERTICAL K  NON-WETTABLE
    2   CONVERTIBLE      HARMONIC     1.000E+00    VERTICAL K  NON-WETTABLE
    3   CONVERTIBLE      HARMONIC     1.000E+00    VERTICAL K  NON-WETTABLE

 WETTING CAPABILITY IS NOT ACTIVE IN ANY LAYER



              HYD. COND. ALONG ROWS FOR LAYER   1
 READING ON UNIT   15 WITH FORMAT: (50E15.6)           



                VERTICAL HYD. COND. FOR LAYER   1
 READING ON UNIT   15 WITH FORMAT: (50E15.6)           



              HYD. COND. ALONG ROWS FOR LAYER   2
 READING ON UNIT   15 WITH FORMAT: (50E15.6)           



                VERTICAL HYD. COND. FOR LAYER   2
 READING ON UNIT   15 WITH FORMAT: (50E15.6)           



              HYD. COND. ALONG ROWS FOR LAYER   3
 READING ON UNIT   15 WITH FORMAT: (50E15.6)           



                VERTICAL HYD. COND. FOR LAYER   3
 READING ON UNIT   15 WITH FORMAT: (50E15.6)           

 WEL -- WELL PACKAGE, VERSION 7, 5/2/2005 INPUT READ FROM UNIT   20
 # WEL package for MODFLOW-2005 generated by Flopy 3.10.0
 No named parameters
 MAXIMUM OF      4 ACTIVE WELLS AT ONE TIME


     0 Well parameters

 RIV -- RIVER PACKAGE, VERSION 7, 5/2/2005 INPUT READ FROM UNIT   18
 # RIV package for MODFLOW-2005 generated by Flopy 3.10.0
 No named parameters
 MAXIMUM OF     49 ACTIVE RIVER REACHES AT ONE TIME
 CELL-BY-CELL FLOWS WILL BE SAVED ON UNIT   53


     0 River parameters

 EVT -- EVAPOTRANSPIRATION PACKAGE, VERSION 7, 5/2/2005
         INPUT READ FROM UNIT   22
 # EVT package for MODFLOW-2005 generated by Flopy 3.10.0
 No named parameters
 OPTION 3 -- EVAPOTRANSPIRATION FROM HIGHEST ACTIVE NODE IN EACH VERTICAL COLUMN
 CELL-BY-CELL FLOWS WILL BE SAVED ON UNIT   53


     0 Evapotranspiration parameters

 RCH -- RECHARGE PACKAGE, VERSION 7, 5/2/2005 INPUT READ FROM UNIT   19
 # RCH package for MODFLOW-2005 generated by Flopy 3.10.0
 No named parameters
 OPTION 3 -- RECHARGE TO HIGHEST ACTIVE NODE IN EACH VERTICAL COLUMN
 CELL-BY-CELL FLOWS WILL BE SAVED ON UNIT   53


     0 Recharge parameters

 PCG -- CONJUGATE-GRADIENT SOLUTION PACKAGE, VERSION 7, 5/2/2005
 # PCG package for MODFLOW-2005 generated by Flopy 3.10.0
 MAXIMUM OF   5000 CALLS OF SOLUTION ROUTINE
 MAXIMUM OF    500 INTERNAL ITERATIONS PER CALL TO SOLUTION ROUTINE
 MATRIX PRECONDITIONING TYPE :    1



                                    SOLUTION BY THE CONJUGATE-GRADIENT METHOD
                                   -------------------------------------------
                    MAXIMUM NUMBER OF CALLS TO PCG ROUTINE =     5000
                        MAXIMUM ITERATIONS PER CALL TO PCG =      500
                               MATRIX PRECONDITIONING TYPE =        1
        RELAXATION FACTOR (ONLY USED WITH PRECOND. TYPE 1) =    0.97000E+00
 PARAMETER OF POLYNOMIAL PRECOND. = 2 (2) OR IS CALCULATED :        0
                         HEAD CHANGE CRITERION FOR CLOSURE =    0.10000E-04
                     RESIDUAL CHANGE CRITERION FOR CLOSURE =    0.10000E-04
            PCG HEAD AND RESIDUAL CHANGE PRINTOUT INTERVAL =      999
     PRINTING FROM SOLVER IS LIMITED(1) OR SUPPRESSED (>1) =        3
                            STEADY-STATE DAMPING PARAMETER =    0.10000E-01
                               TRANSIENT DAMPING PARAMETER =    0.10000E-01
1
                            STRESS PERIOD NO.    1, LENGTH =   1.000000    
                            -----------------------------------------------

                              NUMBER OF TIME STEPS =     1

                               MULTIPLIER FOR DELT =     1.000

                            INITIAL TIME STEP SIZE =   1.000000    

 WELL NO.  LAYER   ROW   COL   STRESS RATE         
 --------------------------------------------------
      1      3     22     39      -1500.    
      2      1     13     15      -4500.    
      3      1     25     26       375.0    
      4      3     30     39      -1500.    

      4 WELLS

 REACH NO.  LAYER   ROW   COL     STAGE      CONDUCTANCE     BOTTOM EL.         
 -------------------------------------------------------------------------------
      1      1     25      2       100.5           50.00           98.00    
      2      1     25      3       99.50           50.00           97.00    
      3      1     25      4       98.50           50.00           96.00    
      4      1     25      5       97.50           50.00           95.00    
      5      1     25      6       96.50           50.00           94.00    
      6      1     25      7       95.50           50.00           93.00    
      7      1     25      8       94.50           50.00           92.00    
      8      1     25      9       93.50           50.00           91.00    
      9      1     25     10       92.50           50.00           90.00    
     10      1     25     11       91.50           50.00           89.00    
     11      1     25     12       90.50           50.00           88.00    
     12      1     25     13       89.50           50.00           87.00    
     13      1     25     14       88.50           50.00           86.00    
     14      1     25     15       87.50           50.00           85.00    
     15      1     25     16       86.50           50.00           84.00    
     16      1     25     17       85.50           50.00           83.00    
     17      1     25     18       84.50           50.00           82.00    
     18      1     25     19       83.50           50.00           81.00    
     19      1     25     20       82.50           50.00           80.00    
     20      1     25     21       81.50           50.00           79.00    
     21      1     25     22       80.50           50.00           78.00    
     22      1     25     23       79.50           50.00           77.00    
     23      1     25     24       78.50           50.00           76.00    
     24      1     25     25       77.50           50.00           75.00    
     25      1     25     26       77.40           50.00           74.90    
     26      1     25     27       77.30           50.00           74.80    
     27      1     25     28       77.20           50.00           74.70    
     28      1     25     29       77.10           50.00           74.60    
     29      1     25     30       77.00           50.00           74.50    
     30      1     25     31       76.90           50.00           74.40    
     31      1     25     32       76.80           50.00           74.30    
     32      1     25     33       76.70           50.00           74.20    
     33      1     25     34       76.60           50.00           74.10    
     34      1     25     35       76.50           50.00           74.00    
     35      1     25     36       76.40           50.00           73.90    
     36      1     25     37       76.30           50.00           73.80    
     37      1     25     38       76.20           50.00           73.70    
     38      1     25     39       76.10           50.00           73.60    
     39      1     25     40       76.00           50.00           73.50    
     40      1     25     41       75.90           50.00           73.40    
     41      1     25     42       75.80           50.00           73.30    
     42      1     25     43       75.70           50.00           73.20    
     43      1     25     44       75.60           50.00           73.10    
     44      1     25     45       75.50           50.00           73.00    
     45      1     25     46       75.40           50.00           72.90    
     46      1     25     47       75.30           50.00           72.80    
     47      1     25     48       75.20           50.00           72.70    
     48      1     25     49       75.10           50.00           72.60    
     49      1     25     50       75.00           50.00           72.50    

     49 RIVER REACHES



                         ET SURFACE
 READING ON UNIT   22 WITH FORMAT: (50E15.6)           



            EVAPOTRANSPIRATION RATE
 READING ON UNIT   22 WITH FORMAT: (50E15.6)           

         EXTINCTION DEPTH =   10.0000    



                           RECHARGE
 READING ON UNIT   19 WITH FORMAT: (50E15.6)           
 
 SOLVING FOR HEAD 

 OUTPUT CONTROL FOR STRESS PERIOD    1   TIME STEP    1
    SAVE HEAD FOR ALL LAYERS
    SAVE DRAWDOWN FOR ALL LAYERS
    SAVE BUDGET
    PRINT HEAD FOR ALL LAYERS
    PRINT BUDGET
 UBDSV2 SAVING "   CONSTANT HEAD" ON UNIT  53 AT TIME STEP  1, STRESS PERIOD   1
 UBDSV1 SAVING "FLOW RIGHT FACE " ON UNIT  53 AT TIME STEP  1, STRESS PERIOD   1
 UBDSV1 SAVING "FLOW FRONT FACE " ON UNIT  53 AT TIME STEP  1, STRESS PERIOD   1
 UBDSV1 SAVING "FLOW LOWER FACE " ON UNIT  53 AT TIME STEP  1, STRESS PERIOD   1
 UBDSV4 SAVING "   RIVER LEAKAGE" ON UNIT  53 AT TIME STEP  1, STRESS PERIOD   1
 UBDSV3 SAVING "              ET" ON UNIT  53 AT TIME STEP  1, STRESS PERIOD   1
 UBDSV3 SAVING "        RECHARGE" ON UNIT  53 AT TIME STEP  1, STRESS PERIOD   1
1
              HEAD IN LAYER   1 AT END OF TIME STEP   1 IN STRESS PERIOD    1
  ---------------------------------------------------------------------------

            1           2           3           4           5           6           7           8           9          10
           11          12          13          14          15          16          17          18          19          20
           21          22          23          24          25          26          27          28          29          30
           31          32          33          34          35          36          37          38          39          40
           41          42          43          44          45          46          47          48          49          50
 ........................................................................................................................
   1  -1000.0     -1000.0     -1000.0     -1000.0     -1000.0     -1000.0     -1000.0     -1000.0     -1000.0     -1000.0    
      -1000.0     -1000.0     -1000.0     -1000.0     -1000.0     -1000.0     -1000.0     -1000.0     -1000.0     -1000.0    
      -1000.0     -1000.0     -1000.0     -1000.0     -1000.0     -1000.0     -1000.0     -1000.0     -1000.0     -1000.0    
      -1000.0     -1000.0     -1000.0     -1000.0     -1000.0     -1000.0     -1000.0     -1000.0     -1000.0     -1000.0    
      -1000.0     -1000.0     -1000.0     -1000.0     -1000.0     -1000.0     -1000.0     -1000.0     -1000.0       70.00    
   2  -1000.0     -1000.0     -1000.0     -1000.0     -1000.0       105.4       105.1       104.7       104.1       103.4    
        102.9       102.2       101.4       100.6       99.66       98.65       97.66       96.69       95.75       94.82    
        93.96       93.12       92.28       91.45       90.62       89.80       88.99       88.18       87.37       86.57    
        85.77       84.97       84.17       83.38       82.58       81.79       81.00       80.20       79.40       78.60    
        77.80       76.99       76.17       75.34       74.50       73.64       72.77       71.87       70.95       70.00    
   3  -1000.0     -1000.0     -1000.0     -1000.0       105.8       105.5       105.1       104.6       104.0       103.5    
        102.9       102.2       101.4       100.6       99.63       98.62       97.63       96.66       95.72       94.79    
        93.94       93.09       92.26       91.43       90.60       89.78       88.97       88.16       87.35       86.55    
        85.75       84.95       84.16       83.37       82.57       81.78       80.99       80.19       79.40       78.59    
        77.79       76.98       76.16       75.33       74.49       73.64       72.76       71.87       70.95       70.00    
   4  -1000.0     -1000.0     -1000.0       106.1       105.9       105.5       105.1       104.6       104.1       103.5    
        102.9       102.2       101.4       100.5       99.56       98.55       97.56       96.60       95.66       94.74    
        93.89       93.05       92.22       91.39       90.57       89.75       88.94       88.13       87.32       86.52    
        85.72       84.93       84.13       83.34       82.55       81.76       80.97       80.17       79.38       78.58    
        77.77       76.96       76.15       75.32       74.48       73.63       72.76       71.87       70.95       70.00    
   5  -1000.0     -1000.0       106.4       106.2       105.9       105.5       105.1       104.6       104.1       103.5    
        102.8       102.1       101.3       100.4       99.47       98.45       97.47       96.51       95.58       94.66    
        93.82       92.99       92.16       91.33       90.51       89.70       88.89       88.08       87.28       86.48    
        85.68       84.89       84.09       83.30       82.51       81.72       80.93       80.14       79.35       78.55    
        77.75       76.94       76.13       75.30       74.47       73.62       72.75       71.86       70.94       70.00    
   6  -1000.0       106.6       106.4       106.2       105.9       105.5       105.1       104.6       104.1       103.4    
        102.8       102.0       101.2       100.3       99.33       98.31       97.33       96.38       95.46       94.56    
        93.73       92.90       92.08       91.26       90.45       89.63       88.83       88.02       87.22       86.42    
        85.63       84.83       84.04       83.25       82.47       81.68       80.89       80.10       79.31       78.52    
        77.72       76.92       76.10       75.28       74.45       73.60       72.74       71.85       70.94       70.00    
   7  -1000.0       106.5       106.4       106.2       105.8       105.5       105.1       104.6       104.0       103.4    
        102.7       101.9       101.0       100.1       99.14       98.13       97.15       96.22       95.32       94.43    
        93.61       92.80       91.98       91.17       90.36       89.55       88.75       87.94       87.15       86.35    
        85.56       84.77       83.98       83.19       82.41       81.62       80.84       80.05       79.27       78.48    
        77.68       76.88       76.07       75.26       74.43       73.58       72.72       71.84       70.94       70.00    
   8  -1000.0       106.5       106.3       106.1       105.8       105.5       105.0       104.5       104.0       103.3    
        102.5       101.7       100.8       99.88       98.90       97.88       96.93       96.02       95.14       94.28    
        93.48       92.68       91.87       91.07       90.26       89.46       88.66       87.86       87.06       86.26    
        85.47       84.69       83.90       83.12       82.34       81.55       80.77       79.99       79.21       78.42    
        77.63       76.84       76.04       75.22       74.40       73.56       72.71       71.83       70.93       70.00    
   9  -1000.0       106.4       106.2       106.1       105.8       105.4       105.0       104.5       103.9       103.2    
        102.4       101.5       100.6       99.58       98.57       97.57       96.65       95.78       94.94       94.11    
        93.33       92.55       91.75       90.96       90.16       89.35       88.55       87.75       86.96       86.16    
        85.38       84.59       83.81       83.03       82.25       81.48       80.70       79.92       79.15       78.36    
        77.58       76.79       75.99       75.19       74.37       73.54       72.69       71.82       70.92       70.00    
  10  -1000.0       106.3       106.2       106.0       105.7       105.4       104.9       104.4       103.8       103.0    
        102.2       101.3       100.3       99.18       98.12       97.15       96.31       95.51       94.72       93.93    
        93.18       92.41       91.62       90.83       90.04       89.23       88.43       87.64       86.84       86.05    
        85.27       84.48       83.70       82.93       82.16       81.38       80.61       79.84       79.07       78.30    
        77.52       76.73       75.94       75.14       74.33       73.51       72.66       71.80       70.92       70.00    
  11  -1000.0       106.2       106.1       106.0       105.7       105.3       104.9       104.3       103.7       102.9    
        102.0       101.0       99.88       98.66       97.47       96.61       95.91       95.22       94.50       93.76    
        93.02       92.27       91.49       90.71       89.91       89.11       88.31       87.51       86.71       85.92    
        85.14       84.36       83.59       82.81       82.05       81.28       80.52       79.75       78.99       78.22    
        77.45       76.67       75.89       75.10       74.29       73.48       72.64       71.79       70.91       70.00    
  12  -1000.0       106.2       106.1       105.9       105.6       105.3       104.8       104.2       103.6       102.8    
        101.9       100.8       99.49       97.98       96.35       95.91       95.49       94.94       94.30       93.60    
        92.88       92.13       91.36       90.57       89.77       88.97       88.16       87.36       86.57       85.78    
        85.00       84.22       83.45       82.69       81.92       81.16       80.41       79.65       78.89       78.14    
        77.37       76.61       75.83       75.05       74.25       73.44       72.61       71.77       70.90       70.00    
  13  -1000.0       106.1       106.0       105.8       105.6       105.2       104.7       104.2       103.5       102.7    
        101.7       100.6       99.21       97.27       93.90       95.18       95.18       94.76       94.16       93.47    
        92.76       92.01       91.23       90.44       89.63       88.81       88.01       87.21       86.41       85.63    
        84.85       84.07       83.31       82.54       81.79       81.04       80.29       79.54       78.79       78.04    
        77.29       76.53       75.77       74.99       74.21       73.41       72.59       71.75       70.89       70.00    
  14  -1000.0       106.1       106.0       105.8       105.5       105.1       104.7       104.1       103.4       102.6    
        101.7       100.6       99.32       97.80       96.17       95.72       95.30       94.75       94.11       93.40    
        92.67       91.90       91.11       90.30       89.48       88.65       87.84       87.03       86.24       85.45    
        84.67       83.90       83.14       82.39       81.64       80.90       80.16       79.42       78.68       77.94    
        77.20       76.45       75.70       74.94       74.16       73.37       72.56       71.73       70.88       70.00    
  15  -1000.0       106.0       105.9       105.7       105.5       105.1       104.6       104.1       103.4       102.6    
        101.7       100.7       99.55       98.31       97.10       96.24       95.53       94.83       94.11       93.36    
        92.59       91.80       90.98       90.15       89.31       88.47       87.65       86.84       86.04       85.26    
        84.48       83.72       82.96       82.22       81.48       80.74       80.01       79.29       78.56       77.83    
        77.11       76.37       75.63       74.88       74.11       73.33       72.53       71.72       70.87       70.00    
  16  -1000.0       105.9       105.8       105.7       105.4       105.0       104.6       104.0       103.4       102.6    
        101.8       100.8       99.76       98.66       97.58       96.60       95.74       94.93       94.14       93.33    
        92.52       91.69       90.85       90.00       89.14       88.28       87.44       86.63       85.83       85.04    
        84.27       83.52       82.77       82.03       81.30       80.58       79.86       79.15       78.43       77.72    
        77.01       76.29       75.56       74.82       74.07       73.30       72.51       71.70       70.86       70.00    
  17  -1000.0       105.8       105.8       105.6       105.3       105.0       104.5       104.0       103.3       102.6    
        101.8       100.9       99.91       98.89       97.85       96.83       95.89       95.02       94.16       93.31    
        92.45       91.58       90.70       89.82       88.94       88.07       87.22       86.39       85.59       84.81    
        84.04       83.29       82.55       81.83       81.11       80.40       79.70       79.00       78.30       77.60    
        76.90       76.20       75.49       74.76       74.03       73.27       72.49       71.69       70.86       70.00    
  18  -1000.0       105.8       105.7       105.5       105.2       104.9       104.4       103.9       103.3       102.6    
        101.8       100.9       99.99       99.01       98.00       96.95       95.98       95.06       94.17       93.29    
        92.37       91.45       90.54       89.62       88.72       87.83       86.97       86.13       85.33       84.54    
        83.78       83.04       82.32       81.60       80.90       80.21       79.52       78.84       78.16       77.48    
        76.80       76.12       75.42       74.71       73.99       73.24       72.47       71.68       70.85       70.00    
  19  -1000.0       105.7       105.6       105.4       105.1       104.8       104.4       103.8       103.2       102.5    
        101.8       100.9       100.0       99.06       98.05       97.00       96.01       95.08       94.17       93.25    
        92.28       91.30       90.33       89.39       88.46       87.55       86.68       85.84       85.04       84.26    
        83.50       82.77       82.06       81.36       80.68       80.00       79.34       78.67       78.02       77.36    
        76.70       76.04       75.36       74.67       73.96       73.23       72.47       71.68       70.86       70.00    
  20  -1000.0       105.6       105.5       105.3       105.0       104.7       104.3       103.7       103.1       102.4    
        101.7       100.9       99.98       99.03       98.03       96.98       95.99       95.05       94.15       93.22    
        92.15       91.10       90.08       89.10       88.15       87.23       86.35       85.51       84.71       83.94    
        83.19       82.47       81.78       81.10       80.44       79.78       79.14       78.50       77.87       77.24    
        76.60       75.96       75.31       74.64       73.95       73.23       72.48       71.69       70.86       70.00    
  21  -1000.0       105.5       105.4       105.2       104.9       104.6       104.1       103.6       103.0       102.3    
        101.6       100.8       99.88       98.93       97.93       96.88       95.89       94.97       94.17       93.22    
        91.98       90.84       89.76       88.75       87.78       86.85       85.97       85.13       84.34       83.57    
        82.85       82.15       81.47       80.82       80.18       79.55       78.94       78.33       77.72       77.12    
        76.51       75.90       75.27       74.63       73.96       73.26       72.51       71.72       70.88       70.00    
  22  -1000.0       105.3       105.3       105.1       104.8       104.4       104.0       103.5       102.8       102.2    
        101.4       100.6       99.72       98.78       97.77       96.71       95.71       94.78       93.96       93.00    
        91.68       90.46       89.34       88.30       87.33       86.41       85.53       84.70       83.91       83.17    
        82.46       81.79       81.14       80.51       79.90       79.31       78.72       78.14       77.57       77.00    
        76.43       75.85       75.25       74.64       74.00       73.32       72.58       71.79       70.92       70.00    
  23  -1000.0       105.2       105.1       104.9       104.6       104.3       103.8       103.3       102.7       102.0    
        101.2       100.4       99.51       98.56       97.54       96.47       95.44       94.47       93.53       92.56    
        91.22       89.95       88.80       87.75       86.79       85.91       85.03       84.20       83.42       82.70    
        82.03       81.39       80.77       80.18       79.61       79.05       78.50       77.96       77.42       76.89    
        76.35       75.81       75.26       74.68       74.07       73.42       72.70       71.90       71.00       70.00    
  24  -1000.0       105.1       105.0       104.8       104.5       104.1       103.6       103.0       102.4       101.7    
        101.0       100.1       99.24       98.28       97.25       96.16       95.11       94.10       93.12       92.15    
        90.63       89.28       88.09       87.04       86.14       85.38       84.45       83.60       82.85       82.17    
        81.53       80.94       80.37       79.82       79.29       78.77       78.27       77.77       77.27       76.78    
        76.29       75.80       75.29       74.76       74.19       73.58       72.90       72.10       71.14       70.00    
  25  -1000.0       105.0       104.9       104.6       104.3       103.9       103.4       102.8       102.1       101.4    
        100.7       99.81       98.91       97.94       96.90       95.79       94.72       93.69       92.69       91.71    
        89.82       88.39       87.17       86.12       85.30       84.99       83.73       82.88       82.17       81.55    
        80.97       80.43       79.92       79.43       78.95       78.48       78.02       77.57       77.13       76.69    
        76.25       75.80       75.34       74.87       74.37       73.82       73.20       72.44       71.43       70.00    
  26  -1000.0       105.4       105.3       105.1       104.8       104.4       103.9       103.4       102.8       102.1    
        101.3       100.5       99.58       98.62       97.58       96.46       95.39       94.34       93.32       92.34    
        90.82       89.48       88.29       87.24       86.33       85.56       84.61       83.76       83.00       82.30    
        81.66       81.05       80.47       79.92       79.38       78.85       78.34       77.83       77.33       76.83    
        76.33       75.83       75.31       74.78       74.21       73.60       72.91       72.11       71.14       70.00    
  27  -1000.0       105.8       105.7       105.5       105.2       104.9       104.4       103.9       103.3       102.6    
        101.9       101.1       100.2       99.24       98.20       97.09       96.00       94.95       93.92       92.92    
        91.61       90.36       89.21       88.16       87.19       86.29       85.39       84.53       83.73       82.99    
        82.29       81.63       80.99       80.38       79.79       79.21       78.64       78.09       77.53       76.99    
        76.44       75.88       75.32       74.73       74.12       73.45       72.73       71.92       71.01       70.00    
  28  -1000.0       106.2       106.1       106.0       105.7       105.3       104.9       104.4       103.8       103.2    
        102.5       101.7       100.8       99.82       98.78       97.66       96.57       95.51       94.47       93.46    
        92.26       91.09       89.98       88.93       87.93       86.98       86.07       85.20       84.38       83.60    
        82.86       82.15       81.47       80.81       80.17       79.55       78.94       78.34       77.74       77.15    
        76.56       75.96       75.35       74.72       74.07       73.37       72.62       71.81       70.94       70.00    
  29  -1000.0       106.6       106.5       106.4       106.1       105.8       105.4       104.9       104.3       103.7    
        103.0       102.2       101.3       100.3       99.31       98.19       97.10       96.03       94.98       93.96    
        92.83       91.72       90.64       89.60       88.59       87.61       86.69       85.80       84.95       84.14    
        83.37       82.63       81.91       81.21       80.54       79.87       79.22       78.58       77.95       77.32    
        76.69       76.06       75.41       74.75       74.06       73.34       72.57       71.76       70.90       70.00    
  30  -1000.0       107.0       106.9       106.7       106.5       106.2       105.8       105.3       104.8       104.1    
        103.4       102.6       101.8       100.8       99.79       98.67       97.58       96.51       95.46       94.43    
        93.34       92.26       91.21       90.17       89.16       88.18       87.24       86.33       85.47       84.64    
        83.84       83.07       82.32       81.59       80.88       80.18       79.50       78.83       78.16       77.50    
        76.84       76.17       75.49       74.79       74.08       73.33       72.56       71.74       70.89       70.00    
  31  -1000.0       107.3       107.3       107.1       106.9       106.6       106.2       105.7       105.2       104.5    
        103.8       103.1       102.2       101.3       100.2       99.11       98.02       96.94       95.89       94.85    
        93.80       92.75       91.71       90.68       89.67       88.68       87.73       86.82       85.94       85.09    
        84.26       83.47       82.69       81.94       81.20       80.48       79.77       79.07       78.37       77.68    
        76.99       76.29       75.58       74.86       74.12       73.35       72.56       71.74       70.89       70.00    
  32  -1000.0       107.7       107.6       107.4       107.2       106.9       106.5       106.1       105.5       104.9    
        104.2       103.5       102.6       101.7       100.6       99.52       98.42       97.35       96.29       95.24    
        94.21       93.18       92.15       91.13       90.12       89.13       88.18       87.25       86.36       85.50    
        84.66       83.84       83.05       82.27       81.51       80.77       80.03       79.30       78.58       77.86    
        77.14       76.41       75.68       74.94       74.17       73.39       72.59       71.76       70.89       70.00    
  33  -1000.0       108.0       107.9       107.7       107.5       107.2       106.8       106.4       105.9       105.3    
        104.6       103.8       103.0       102.0       101.0       99.88       98.79       97.71       96.65       95.61    
        94.59       93.57       92.55       91.54       90.53       89.54       88.58       87.65       86.75       85.87    
        85.02       84.19       83.38       82.58       81.81       81.04       80.28       79.53       78.78       78.04    
        77.29       76.54       75.79       75.02       74.24       73.44       72.62       71.78       70.90       70.00    
  34  -1000.0       108.2       108.2       108.0       107.8       107.5       107.1       106.7       106.2       105.6    
        104.9       104.1       103.3       102.3       101.3       100.2       99.13       98.05       96.99       95.94    
        94.93       93.92       92.91       91.91       90.90       89.91       88.95       88.01       87.10       86.22    
        85.35       84.51       83.69       82.88       82.08       81.30       80.52       79.75       78.98       78.21    
        77.45       76.68       75.90       75.11       74.32       73.50       72.66       71.80       70.92       70.00    
  35  -1000.0       108.5       108.4       108.3       108.1       107.8       107.4       107.0       106.4       105.8    
        105.2       104.4       103.6       102.6       101.6       100.5       99.43       98.36       97.29       96.24    
        95.24       94.24       93.24       92.24       91.23       90.24       89.28       88.34       87.43       86.53    
        85.66       84.81       83.98       83.16       82.34       81.54       80.74       79.95       79.17       78.38    
        77.60       76.81       76.01       75.21       74.39       73.56       72.71       71.83       70.93       70.00    
  36  -1000.0       108.7       108.7       108.5       108.3       108.0       107.6       107.2       106.7       106.1    
        105.4       104.7       103.8       102.9       101.9       100.8       99.71       98.63       97.57       96.52    
        95.53       94.53       93.53       92.54       91.54       90.55       89.58       88.64       87.72       86.83    
        85.95       85.09       84.25       83.41       82.59       81.77       80.96       80.15       79.35       78.54    
        77.74       76.94       76.12       75.30       74.47       73.62       72.75       71.86       70.95       70.00    
  37  -1000.0       108.9       108.9       108.7       108.5       108.2       107.9       107.4       106.9       106.3    
        105.7       104.9       104.1       103.1       102.1       101.0       99.96       98.88       97.82       96.77    
        95.78       94.79       93.80       92.81       91.81       90.82       89.86       88.92       88.00       87.10    
        86.22       85.35       84.50       83.65       82.81       81.98       81.15       80.33       79.52       78.70    
        77.88       77.06       76.23       75.39       74.55       73.68       72.80       71.89       70.96       70.00    
  38  -1000.0       109.1       109.0       108.9       108.7       108.4       108.0       107.6       107.1       106.5    
        105.9       105.1       104.3       103.4       102.4       101.3       100.2       99.11       98.05       97.00    
        96.02       95.03       94.04       93.05       92.06       91.08       90.12       89.17       88.25       87.35    
        86.47       85.59       84.72       83.87       83.02       82.17       81.34       80.50       79.67       78.84    
        78.01       77.17       76.33       75.48       74.62       73.74       72.84       71.92       70.98       70.00    
  39  -1000.0       109.3       109.2       109.1       108.8       108.6       108.2       107.8       107.3       106.7    
        106.0       105.3       104.5       103.5       102.5       101.5       100.4       99.31       98.25       97.21    
        96.23       95.24       94.26       93.27       92.29       91.31       90.35       89.41       88.49       87.58    
        86.69       85.81       84.93       84.07       83.21       82.35       81.51       80.66       79.82       78.98    
        78.13       77.28       76.43       75.56       74.69       73.80       72.89       71.95       70.99       70.00    
  40  -1000.0       109.4       109.3       109.2       109.0       108.7       108.3       107.9       107.4       106.8    
        106.2       105.4       104.6       103.7       102.7       101.6       100.6       99.49       98.44       97.39    
        96.41       95.43       94.45       93.47       92.49       91.51       90.56       89.62       88.70       87.79    
        86.89       86.00       85.12       84.25       83.38       82.52       81.66       80.80       79.95       79.10    
        78.24       77.38       76.52       75.64       74.75       73.85       72.93       71.98       71.01       70.00    
  41  -1000.0       109.5       109.5       109.3       109.1       108.8       108.5       108.0       107.5       107.0    
        106.3       105.6       104.7       103.8       102.9       101.8       100.7       99.65       98.60       97.55    
        96.58       95.60       94.63       93.65       92.67       91.70       90.75       89.81       88.89       87.98    
        87.07       86.18       85.29       84.41       83.53       82.66       81.80       80.93       80.07       79.21    
        78.34       77.47       76.60       75.71       74.81       73.90       72.96       72.01       71.02       70.00    
  42  -1000.0       109.7       109.6       109.4       109.2       108.9       108.6       108.1       107.6       107.1    
        106.4       105.7       104.9       104.0       103.0       101.9       100.8       99.78       98.73       97.69    
        96.72       95.75       94.78       93.80       92.83       91.87       90.92       89.98       89.06       88.14    
        87.23       86.33       85.44       84.55       83.67       82.79       81.92       81.05       80.18       79.31    
        78.43       77.55       76.67       75.77       74.86       73.94       73.00       72.03       71.03       70.00    
  43  -1000.0       109.8       109.7       109.5       109.3       109.0       108.6       108.2       107.7       107.1    
        106.5       105.8       105.0       104.1       103.1       102.0       101.0       99.90       98.85       97.81    
        96.84       95.88       94.91       93.94       92.98       92.02       91.07       90.13       89.20       88.28    
        87.37       86.46       85.57       84.68       83.79       82.91       82.03       81.15       80.27       79.39    
        78.51       77.63       76.73       75.83       74.91       73.98       73.03       72.05       71.04       70.00    
  44  -1000.0       109.9       109.8       109.6       109.3       109.0       108.7       108.2       107.8       107.2    
        106.5       105.8       105.0       104.1       103.2       102.1       101.0      100.00       98.95       97.92    
        96.95       95.98       95.02       94.05       93.09       92.14       91.19       90.25       89.32       88.40    
        87.49       86.58       85.68       84.78       83.89       83.01       82.12       81.24       80.35       79.47    
        78.58       77.69       76.79       75.87       74.95       74.01       73.05       72.07       71.05       70.00    
  45  -1000.0       110.0       109.9       109.7       109.4       109.0       108.7       108.3       107.8       107.2    
        106.6       105.9       105.1       104.2       103.2       102.2       101.1       100.1       99.04       98.00    
        97.04       96.07       95.11       94.15       93.19       92.24       91.29       90.35       89.42       88.50    
        87.58       86.67       85.77       84.87       83.98       83.09       82.20       81.31       80.42       79.53    
        78.64       77.74       76.83       75.91       74.98       74.04       73.07       72.08       71.06       70.00    
  46  -1000.0     -1000.0       109.8       109.7       109.4       109.1       108.7       108.3       107.8       107.2    
        106.6       105.9       105.1       104.3       103.3       102.2       101.2       100.1       99.10       98.07    
        97.11       96.14       95.18       94.23       93.27       92.32       91.37       90.43       89.50       88.58    
        87.66       86.75       85.85       84.94       84.05       83.15       82.26       81.37       80.47       79.58    
        78.68       77.78       76.87       75.95       75.01       74.06       73.09       72.09       71.07       70.00    
  47  -1000.0     -1000.0     -1000.0       109.6       109.4       109.1       108.7       108.2       107.8       107.2    
        106.6       105.9       105.2       104.3       103.3       102.3       101.2       100.2       99.15       98.12    
        97.16       96.20       95.24       94.28       93.33       92.38       91.43       90.50       89.56       88.64    
        87.72       86.81       85.90       85.00       84.10       83.20       82.31       81.41       80.51       79.62    
        78.72       77.81       76.89       75.97       75.03       74.08       73.10       72.10       71.07       70.00    
  48  -1000.0     -1000.0     -1000.0     -1000.0       109.3       109.1       108.7       108.3       107.7       107.2    
        106.6       105.9       105.2       104.3       103.4       102.3       101.3       100.2       99.18       98.15    
        97.19       96.23       95.28       94.32       93.37       92.42       91.47       90.54       89.60       88.68    
        87.76       86.85       85.94       85.03       84.13       83.23       82.34       81.44       80.54       79.64    
        78.74       77.83       76.91       75.99       75.05       74.09       73.11       72.11       71.07       70.00    
  49  -1000.0     -1000.0     -1000.0     -1000.0     -1000.0       109.0       108.7       108.3       107.8       107.1    
        106.6       105.9       105.2       104.3       103.4       102.3       101.3       100.2       99.20       98.17    
        97.21       96.25       95.29       94.34       93.39       92.44       91.49       90.56       89.62       88.70    
        87.78       86.87       85.96       85.05       84.15       83.25       82.35       81.45       80.56       79.65    
        78.75       77.84       76.92       75.99       75.05       74.09       73.12       72.11       71.07       70.00    
  50  -1000.0     -1000.0     -1000.0     -1000.0     -1000.0     -1000.0     -1000.0     -1000.0     -1000.0     -1000.0    
      -1000.0     -1000.0     -1000.0     -1000.0     -1000.0     -1000.0     -1000.0     -1000.0     -1000.0     -1000.0    
      -1000.0     -1000.0     -1000.0     -1000.0     -1000.0     -1000.0     -1000.0     -1000.0     -1000.0     -1000.0    
      -1000.0     -1000.0     -1000.0     -1000.0     -1000.0     -1000.0     -1000.0     -1000.0     -1000.0     -1000.0    
      -1000.0     -1000.0     -1000.0     -1000.0     -1000.0     -1000.0     -1000.0     -1000.0     -1000.0       70.00    
1
              HEAD IN LAYER   2 AT END OF TIME STEP   1 IN STRESS PERIOD    1
  ---------------------------------------------------------------------------

            1           2           3           4           5           6           7           8           9          10
           11          12          13          14          15          16          17          18          19          20
           21          22          23          24          25          26          27          28          29          30
           31          32          33          34          35          36          37          38          39          40
           41          42          43          44          45          46          47          48          49          50
 ........................................................................................................................
   1  -1000.0     -1000.0     -1000.0     -1000.0     -1000.0     -1000.0     -1000.0     -1000.0     -1000.0     -1000.0    
      -1000.0     -1000.0     -1000.0     -1000.0     -1000.0     -1000.0     -1000.0     -1000.0     -1000.0     -1000.0    
      -1000.0     -1000.0     -1000.0     -1000.0     -1000.0     -1000.0     -1000.0     -1000.0     -1000.0     -1000.0    
      -1000.0     -1000.0     -1000.0     -1000.0     -1000.0     -1000.0     -1000.0     -1000.0     -1000.0     -1000.0    
      -1000.0     -1000.0     -1000.0     -1000.0     -1000.0     -1000.0     -1000.0     -1000.0     -1000.0       70.00    
   2  -1000.0     -1000.0     -1000.0     -1000.0     -1000.0     -1000.0     -1000.0       104.7       104.1       103.4    
        102.9       102.2       101.4       100.6       99.66       98.65       97.66       96.69       95.75       94.82    
        93.89       92.98       92.09       91.21       90.35       89.50       88.65       87.81       86.98       86.15    
        85.33       84.52       83.70       82.90       82.09       81.29       80.49       79.70       78.90       78.10    
        77.31       76.51       75.71       74.91       74.10       73.29       72.48       71.66       70.83       70.00    
   3  -1000.0     -1000.0     -1000.0     -1000.0     -1000.0     -1000.0       105.1       104.6       104.0       103.5    
        102.9       102.2       101.4       100.6       99.63       98.62       97.63       96.66       95.72       94.79    
        93.87       92.96       92.07       91.20       90.33       89.48       88.63       87.80       86.97       86.14    
        85.32       84.50       83.69       82.89       82.08       81.28       80.48       79.69       78.89       78.10    
        77.30       76.50       75.71       74.91       74.10       73.29       72.48       71.65       70.83       70.00    
   4  -1000.0     -1000.0     -1000.0     -1000.0     -1000.0       105.5       105.1       104.6       104.1       103.5    
        102.9       102.2       101.4       100.5       99.56       98.55       97.56       96.60       95.66       94.74    
        93.82       92.92       92.03       91.16       90.30       89.45       88.61       87.77       86.94       86.12    
        85.30       84.48       83.67       82.86       82.06       81.26       80.46       79.67       78.87       78.08    
        77.29       76.49       75.69       74.89       74.09       73.28       72.47       71.65       70.83       70.00    
   5  -1000.0     -1000.0     -1000.0     -1000.0       105.9       105.5       105.1       104.6       104.1       103.5    
        102.8       102.1       101.3       100.4       99.47       98.45       97.47       96.51       95.58       94.66    
        93.75       92.86       91.98       91.11       90.25       89.41       88.56       87.73       86.90       86.08    
        85.26       84.45       83.64       82.83       82.03       81.23       80.43       79.64       78.85       78.05    
        77.26       76.47       75.68       74.88       74.08       73.27       72.46       71.65       70.82       70.00    
   6  -1000.0     -1000.0     -1000.0       106.2       105.9       105.5       105.1       104.6       104.1       103.4    
        102.8       102.0       101.2       100.3       99.33       98.31       97.33       96.38       95.46       94.56    
        93.66       92.77       91.90       91.04       90.19       89.35       88.51       87.68       86.85       86.03    
        85.21       84.40       83.59       82.79       81.99       81.19       80.39       79.60       78.81       78.02    
        77.23       76.44       75.65       74.86       74.06       73.26       72.45       71.64       70.82       70.00    
   7  -1000.0     -1000.0       106.4       106.2       105.8       105.5       105.1       104.6       104.0       103.4    
        102.7       101.9       101.0       100.1       99.14       98.13       97.15       96.22       95.32       94.43    
        93.55       92.67       91.81       90.96       90.12       89.28       88.44       87.61       86.79       85.97    
        85.15       84.34       83.54       82.73       81.93       81.14       80.34       79.55       78.77       77.98    
        77.19       76.41       75.62       74.83       74.04       73.24       72.44       71.63       70.82       70.00    
   8  -1000.0       106.5       106.3       106.1       105.8       105.5       105.0       104.5       104.0       103.3    
        102.5       101.7       100.8       99.88       98.90       97.88       96.93       96.02       95.14       94.28    
        93.42       92.56       91.71       90.87       90.03       89.20       88.37       87.54       86.72       85.90    
        85.08       84.27       83.47       82.67       81.87       81.07       80.28       79.50       78.71       77.93    
        77.15       76.36       75.58       74.80       74.01       73.22       72.42       71.62       70.81       70.00    
   9  -1000.0       106.4       106.2       106.1       105.8       105.4       105.0       104.5       103.9       103.2    
        102.4       101.5       100.6       99.58       98.57       97.57       96.65       95.78       94.94       94.11    
        93.27       92.43       91.60       90.77       89.93       89.11       88.28       87.45       86.63       85.82    
        85.00       84.19       83.39       82.59       81.79       81.00       80.21       79.43       78.65       77.87    
        77.09       76.31       75.54       74.76       73.98       73.19       72.40       71.60       70.80       70.00    
  10  -1000.0       106.3       106.2       106.0       105.7       105.4       104.9       104.4       103.8       103.0    
        102.2       101.3       100.3       99.18       98.12       97.15       96.31       95.51       94.72       93.93    
        93.12       92.30       91.48       90.66       89.83       89.01       88.18       87.36       86.54       85.72    
        84.91       84.10       83.30       82.50       81.71       80.92       80.13       79.35       78.57       77.80    
        77.03       76.26       75.48       74.71       73.94       73.16       72.38       71.59       70.80       70.00    
  11  -1000.0       106.2       106.1       106.0       105.7       105.3       104.9       104.3       103.7       102.9    
        102.0       101.0       99.88       98.66       97.47       96.61       95.91       95.22       94.50       93.76    
        92.97       92.17       91.36       90.54       89.72       88.90       88.08       87.26       86.44       85.62    
        84.81       84.00       83.20       82.40       81.61       80.82       80.04       79.26       78.49       77.72    
        76.95       76.19       75.43       74.66       73.90       73.13       72.35       71.57       70.79       70.00    
  12  -1000.0       106.2       106.1       105.9       105.6       105.3       104.8       104.2       103.6       102.8    
        101.9       100.8       99.49       97.97       96.35       95.91       95.49       94.94       94.30       93.60    
        92.83       92.05       91.24       90.43       89.61       88.79       87.97       87.14       86.33       85.51    
        84.70       83.89       83.09       82.29       81.50       80.72       79.94       79.16       78.39       77.63    
        76.87       76.12       75.36       74.61       73.85       73.09       72.32       71.55       70.78       70.00    
  13  -1000.0       106.1       106.0       105.8       105.6       105.2       104.7       104.2       103.5       102.7    
        101.7       100.6       99.21       97.27       93.91       95.18       95.18       94.76       94.16       93.47    
        92.72       91.93       91.13       90.32       89.50       88.67       87.85       87.03       86.21       85.39    
        84.58       83.77       82.97       82.17       81.38       80.60       79.82       79.05       78.29       77.53    
        76.78       76.03       75.29       74.54       73.80       73.05       72.29       71.53       70.77       70.00    
  14  -1000.0       106.1       106.0       105.8       105.5       105.1       104.7       104.1       103.4       102.6    
        101.7       100.6       99.32       97.80       96.17       95.72       95.30       94.75       94.11       93.40    
        92.63       91.83       91.03       90.21       89.38       88.55       87.73       86.90       86.08       85.26    
        84.45       83.64       82.84       82.04       81.25       80.47       79.69       78.93       78.17       77.42    
        76.68       75.94       75.21       74.48       73.74       73.00       72.26       71.51       70.76       70.00    
  15  -1000.0       106.0       105.9       105.7       105.4       105.1       104.6       104.1       103.4       102.6    
        101.7       100.7       99.55       98.31       97.10       96.24       95.53       94.83       94.11       93.36    
        92.56       91.75       90.93       90.10       89.26       88.43       87.60       86.77       85.94       85.12    
        84.31       83.50       82.69       81.90       81.11       80.33       79.55       78.79       78.04       77.30    
        76.57       75.85       75.12       74.40       73.68       72.96       72.22       71.49       70.75       70.00    
  16  -1000.0       105.9       105.8       105.7       105.4       105.0       104.6       104.0       103.4       102.6    
        101.8       100.8       99.76       98.66       97.58       96.60       95.74       94.93       94.14       93.33    
        92.50       91.67       90.83       89.98       89.14       88.30       87.46       86.63       85.80       84.98    
        84.16       83.35       82.54       81.75       80.95       80.17       79.40       78.64       77.90       77.17    
        76.45       75.74       75.03       74.33       73.62       72.91       72.19       71.47       70.73       70.00    
  17  -1000.0       105.8       105.8       105.6       105.3       105.0       104.5       104.0       103.3       102.6    
        101.8       100.9       99.91       98.89       97.85       96.83       95.89       95.02       94.16       93.31    
        92.45       91.59       90.73       89.87       89.02       88.17       87.32       86.48       85.65       84.83    
        84.01       83.19       82.39       81.59       80.79       80.01       79.24       78.48       77.74       77.02    
        76.32       75.63       74.94       74.25       73.56       72.86       72.16       71.44       70.72       70.00    
  18  -1000.0       105.8       105.7       105.5       105.2       104.9       104.4       103.9       103.3       102.6    
        101.8       100.9       99.99       99.01       98.00       96.95       95.98       95.06       94.17       93.29    
        92.39       91.50       90.62       89.75       88.88       88.02       87.17       86.33       85.50       84.67    
        83.85       83.03       82.22       81.42       80.62       79.84       79.07       78.31       77.58       76.87    
        76.18       75.51       74.84       74.17       73.50       72.82       72.12       71.42       70.71       70.00    
  19  -1000.0       105.7       105.6       105.4       105.1       104.8       104.4       103.8       103.2       102.5    
        101.8       100.9       100.0       99.06       98.05       97.00       96.01       95.08       94.17       93.25    
        92.33       91.41       90.51       89.62       88.74       87.88       87.02       86.18       85.34       84.51    
        83.69       82.87       82.06       81.25       80.45       79.66       78.89       78.13       77.40       76.71    
        76.04       75.39       74.75       74.10       73.44       72.78       72.10       71.41       70.71       70.00    
  20  -1000.0       105.6       105.5       105.3       105.0       104.7       104.3       103.7       103.1       102.4    
        101.7       100.9       99.98       99.03       98.03       96.98       95.99       95.05       94.15       93.22    
        92.25       91.30       90.38       89.48       88.60       87.73       86.87       86.02       85.18       84.35    
        83.53       82.71       81.90       81.09       80.29       79.49       78.71       77.95       77.22       76.55    
        75.91       75.28       74.66       74.03       73.39       72.74       72.08       71.39       70.70       70.00    
  21  -1000.0       105.5       105.4       105.2       104.9       104.6       104.1       103.6       103.0       102.3    
        101.6       100.8       99.88       98.93       97.93       96.88       95.89       94.97       94.16       93.22    
        92.15       91.17       90.24       89.33       88.45       87.58       86.71       85.87       85.03       84.19    
        83.37       82.56       81.74       80.94       80.13       79.33       78.54       77.77       77.04       76.39    
        75.78       75.19       74.59       73.98       73.36       72.72       72.06       71.39       70.70       70.00    
  22  -1000.0       105.3       105.3       105.1       104.8       104.4       104.0       103.5       102.8       102.2    
        101.4       100.6       99.72       98.77       97.77       96.71       95.71       94.78       93.96       93.00    
        91.96       91.00       90.08       89.18       88.30       87.43       86.57       85.72       84.88       84.05    
        83.23       82.42       81.61       80.81       80.00       79.21       78.41       77.63       76.89       76.28    
        75.69       75.12       74.54       73.95       73.34       72.71       72.06       71.39       70.70       70.00    
  23  -1000.0       105.2       105.1       104.9       104.6       104.3       103.8       103.3       102.7       102.0    
        101.2       100.4       99.51       98.56       97.54       96.47       95.44       94.47       93.53       92.57    
        91.69       90.81       89.92       89.05       88.18       87.31       86.46       85.61       84.77       83.94    
        83.12       82.31       81.51       80.70       79.91       79.12       78.34       77.58       76.87       76.24    
        75.65       75.08       74.51       73.93       73.33       72.71       72.07       71.40       70.71       70.00    
  24  -1000.0       105.1       105.0       104.8       104.5       104.1       103.6       103.0       102.4       101.7    
        101.0       100.1       99.24       98.28       97.25       96.16       95.11       94.10       93.12       92.15    
        91.44       90.65       89.81       88.96       88.10       87.25       86.39       85.54       84.70       83.87    
        83.05       82.24       81.44       80.65       79.86       79.08       78.31       77.57       76.88       76.24    
        75.65       75.08       74.51       73.93       73.34       72.72       72.08       71.41       70.72       70.00    
  25  -1000.0       105.0       104.9       104.6       104.3       103.9       103.4       102.8       102.1       101.4    
        100.7       99.81       98.91       97.94       96.90       95.79       94.73       93.69       92.69       91.71    
        91.33       90.63       89.81       88.97       88.11       87.27       86.40       85.55       84.70       83.87    
        83.06       82.25       81.44       80.65       79.86       79.08       78.33       77.60       76.91       76.27    
        75.67       75.09       74.52       73.94       73.35       72.74       72.10       71.43       70.73       70.00    
  26  -1000.0       105.4       105.3       105.1       104.8       104.4       103.9       103.4       102.8       102.1    
        101.3       100.5       99.58       98.62       97.58       96.46       95.39       94.34       93.32       92.34    
        91.63       90.85       90.01       89.15       88.28       87.42       86.55       85.69       84.84       84.00    
        83.17       82.35       81.54       80.73       79.94       79.16       78.39       77.66       76.97       76.32    
        75.71       75.12       74.54       73.95       73.35       72.73       72.09       71.42       70.72       70.00    
  27  -1000.0       105.8       105.7       105.5       105.2       104.9       104.4       103.9       103.3       102.6    
        101.9       101.1       100.2       99.24       98.20       97.09       96.00       94.95       93.92       92.92    
        92.06       91.20       90.32       89.43       88.55       87.66       86.78       85.91       85.05       84.20    
        83.35       82.52       81.69       80.88       80.07       79.27       78.49       77.74       77.03       76.38    
        75.75       75.16       74.56       73.97       73.36       72.73       72.08       71.41       70.71       70.00    
  28  -1000.0       106.2       106.1       106.0       105.7       105.3       104.9       104.4       103.8       103.2    
        102.5       101.7       100.8       99.82       98.78       97.66       96.57       95.51       94.47       93.46    
        92.52       91.60       90.68       89.77       88.86       87.96       87.06       86.18       85.30       84.44    
        83.58       82.73       81.89       81.06       80.23       79.41       78.61       77.83       77.11       76.44    
        75.81       75.21       74.61       74.00       73.38       72.74       72.08       71.41       70.71       70.00    
  29  -1000.0       106.6       106.5       106.4       106.1       105.8       105.4       104.9       104.3       103.7    
        103.0       102.2       101.3       100.3       99.31       98.19       97.10       96.03       94.98       93.96    
        92.98       92.01       91.07       90.13       89.20       88.28       87.37       86.47       85.58       84.70    
        83.83       82.97       82.11       81.26       80.41       79.58       78.75       77.94       77.19       76.52    
        75.89       75.28       74.66       74.04       73.41       72.76       72.10       71.41       70.71       70.00    
  30  -1000.0       107.0       106.9       106.7       106.5       106.2       105.8       105.3       104.8       104.1    
        103.4       102.6       101.8       100.8       99.79       98.67       97.58       96.51       95.46       94.43    
        93.41       92.42       91.45       90.49       89.54       88.61       87.69       86.77       85.87       84.98    
        84.09       83.22       82.35       81.48       80.62       79.77       78.92       78.09       77.29       76.63    
        75.99       75.37       74.74       74.11       73.46       72.80       72.12       71.42       70.71       70.00    
  31  -1000.0       107.3       107.3       107.1       106.9       106.6       106.2       105.7       105.2       104.5    
        103.8       103.1       102.2       101.3       100.2       99.11       98.02       96.94       95.89       94.85    
        93.82       92.81       91.82       90.85       89.89       88.94       88.00       87.08       86.16       85.26    
        84.36       83.48       82.60       81.72       80.85       79.99       79.14       78.30       77.52       76.81    
        76.15       75.50       74.85       74.19       73.52       72.84       72.15       71.44       70.72       70.00    
  32  -1000.0       107.7       107.6       107.4       107.2       106.9       106.5       106.1       105.5       104.9    
        104.2       103.5       102.6       101.7       100.6       99.52       98.42       97.35       96.29       95.24    
        94.20       93.18       92.18       91.19       90.22       89.26       88.31       87.37       86.45       85.54    
        84.63       83.74       82.85       81.97       81.10       80.23       79.38       78.55       77.76       77.03    
        76.33       75.65       74.97       74.29       73.60       72.90       72.19       71.47       70.74       70.00    
  33  -1000.0       108.0       107.9       107.7       107.5       107.2       106.8       106.4       105.9       105.3    
        104.6       103.8       103.0       102.0       101.0       99.88       98.79       97.71       96.65       95.61    
        94.55       93.52       92.51       91.51       90.53       89.56       88.61       87.66       86.73       85.81    
        84.90       84.00       83.10       82.22       81.34       80.48       79.63       78.80       78.01       77.25    
        76.52       75.81       75.10       74.39       73.68       72.96       72.23       71.50       70.75       70.00    
  34  -1000.0       108.2       108.2       108.0       107.8       107.5       107.1       106.7       106.2       105.6    
        104.9       104.1       103.3       102.3       101.3       100.2       99.13       98.05       96.99       95.94    
        94.88       93.84       92.82       91.82       90.83       89.85       88.89       87.94       87.00       86.07    
        85.16       84.25       83.35       82.47       81.59       80.72       79.87       79.05       78.24       77.46    
        76.71       75.97       75.24       74.50       73.77       73.03       72.28       71.53       70.77       70.00    
  35  -1000.0       108.5       108.4       108.3       108.1       107.8       107.4       107.0       106.4       105.8    
        105.2       104.4       103.6       102.6       101.6       100.5       99.43       98.36       97.29       96.24    
        95.18       94.14       93.11       92.10       91.11       90.13       89.16       88.20       87.26       86.32    
        85.40       84.49       83.59       82.71       81.83       80.96       80.11       79.27       78.46       77.67    
        76.89       76.13       75.37       74.62       73.86       73.10       72.33       71.56       70.78       70.00    
  36  -1000.0       108.7       108.7       108.5       108.3       108.0       107.6       107.2       106.7       106.1    
        105.4       104.7       103.8       102.9       101.9       100.8       99.71       98.63       97.57       96.52    
        95.46       94.41       93.38       92.37       91.37       90.38       89.41       88.45       87.50       86.56    
        85.64       84.73       83.82       82.93       82.05       81.18       80.33       79.49       78.66       77.86    
        77.06       76.28       75.50       74.72       73.95       73.17       72.39       71.60       70.80       70.00    
  37  -1000.0       108.9       108.9       108.7       108.5       108.2       107.9       107.4       106.9       106.3    
        105.7       104.9       104.1       103.1       102.1       101.0       99.96       98.88       97.82       96.77    
        95.71       94.66       93.63       92.61       91.61       90.62       89.64       88.68       87.73       86.79    
        85.86       84.95       84.04       83.15       82.26       81.39       80.53       79.68       78.85       78.03    
        77.22       76.42       75.62       74.83       74.03       73.24       72.44       71.63       70.82       70.00    
  38  -1000.0       109.1       109.0       108.9       108.7       108.4       108.0       107.6       107.1       106.5    
        105.9       105.1       104.3       103.4       102.4       101.3       100.2       99.11       98.05       97.00    
        95.94       94.89       93.86       92.84       91.83       90.84       89.86       88.89       87.94       87.00    
        86.07       85.15       84.24       83.35       82.46       81.58       80.72       79.86       79.02       78.19    
        77.36       76.55       75.74       74.93       74.12       73.30       72.48       71.66       70.83       70.00    
  39  -1000.0       109.3       109.2       109.1       108.8       108.6       108.2       107.8       107.3       106.7    
        106.0       105.3       104.5       103.5       102.5       101.5       100.4       99.31       98.25       97.21    
        96.14       95.09       94.06       93.04       92.03       91.04       90.06       89.09       88.14       87.19    
        86.26       85.34       84.43       83.53       82.64       81.76       80.89       80.03       79.17       78.33    
        77.50       76.67       75.84       75.02       74.19       73.36       72.53       71.69       70.85       70.00    
  40  -1000.0       109.4       109.3       109.2       109.0       108.7       108.3       107.9       107.4       106.8    
        106.2       105.4       104.6       103.7       102.7       101.6       100.6       99.49       98.44       97.39    
        96.33       95.28       94.25       93.23       92.22       91.22       90.24       89.27       88.32       87.37    
        86.44       85.51       84.60       83.69       82.80       81.91       81.04       80.17       79.31       78.46    
        77.62       76.77       75.94       75.10       74.26       73.42       72.57       71.72       70.86       70.00    
  41  -1000.0       109.5       109.5       109.3       109.1       108.8       108.5       108.0       107.5       107.0    
        106.3       105.6       104.7       103.8       102.9       101.8       100.7       99.65       98.60       97.55    
        96.49       95.44       94.41       93.39       92.38       91.39       90.41       89.44       88.48       87.53    
        86.59       85.67       84.75       83.84       82.94       82.06       81.17       80.30       79.44       78.58    
        77.72       76.87       76.02       75.17       74.32       73.47       72.61       71.74       70.87       70.00    
  42  -1000.0       109.7       109.6       109.4       109.2       108.9       108.6       108.1       107.6       107.1    
        106.4       105.7       104.9       104.0       103.0       101.9       100.8       99.78       98.73       97.69    
        96.63       95.59       94.55       93.54       92.53       91.54       90.55       89.58       88.62       87.67    
        86.73       85.80       84.89       83.98       83.07       82.18       81.30       80.42       79.54       78.68    
        77.81       76.95       76.10       75.24       74.37       73.51       72.64       71.76       70.88       70.00    
  43  -1000.0       109.8       109.7       109.5       109.3       109.0       108.6       108.2       107.7       107.1    
        106.5       105.8       105.0       104.1       103.1       102.0       101.0       99.90       98.85       97.81    
        96.75       95.71       94.68       93.66       92.66       91.66       90.68       89.71       88.75       87.80    
        86.86       85.93       85.00       84.09       83.19       82.29       81.40       80.52       79.64       78.77    
        77.90       77.03       76.16       75.29       74.42       73.55       72.67       71.78       70.89       70.00    
  44  -1000.0     -1000.0       109.8       109.6       109.3       109.0       108.7       108.2       107.8       107.2    
        106.5       105.8       105.0       104.1       103.2       102.1       101.0      100.00       98.95       97.92    
        96.86       95.82       94.79       93.77       92.77       91.77       90.79       89.82       88.85       87.90    
        86.96       86.03       85.10       84.19       83.28       82.38       81.49       80.60       79.72       78.84    
        77.96       77.09       76.22       75.34       74.46       73.58       72.69       71.80       70.90       70.00    
  45  -1000.0     -1000.0     -1000.0       109.7       109.4       109.0       108.7       108.3       107.8       107.2    
        106.6       105.9       105.1       104.2       103.2       102.2       101.1       100.1       99.04       98.00    
        96.95       95.90       94.88       93.86       92.86       91.86       90.88       89.91       88.94       87.99    
        87.05       86.11       85.19       84.27       83.36       82.46       81.56       80.67       79.78       78.90    
        78.02       77.14       76.26       75.38       74.50       73.61       72.71       71.81       70.91       70.00    
  46  -1000.0     -1000.0     -1000.0     -1000.0       109.4       109.1       108.7       108.3       107.8       107.2    
        106.6       105.9       105.1       104.3       103.3       102.2       101.2       100.1       99.10       98.07    
        97.01       95.97       94.95       93.93       92.93       91.93       90.95       89.98       89.02       88.06    
        87.12       86.18       85.26       84.34       83.43       82.52       81.62       80.73       79.84       78.95    
        78.07       77.18       76.30       75.41       74.52       73.63       72.73       71.83       70.91       70.00    
  47  -1000.0     -1000.0     -1000.0     -1000.0     -1000.0       109.1       108.7       108.2       107.8       107.2    
        106.6       105.9       105.2       104.3       103.3       102.3       101.2       100.2       99.15       98.12    
        97.06       96.03       95.00       93.99       92.98       91.99       91.01       90.03       89.07       88.12    
        87.17       86.23       85.31       84.39       83.47       82.57       81.67       80.77       79.88       78.99    
        78.10       77.21       76.33       75.44       74.54       73.65       72.74       71.83       70.92       70.00    
  48  -1000.0     -1000.0     -1000.0     -1000.0     -1000.0     -1000.0       108.7       108.3       107.7       107.2    
        106.6       105.9       105.2       104.3       103.4       102.3       101.3       100.2       99.18       98.15    
        97.10       96.06       95.04       94.02       93.02       92.02       91.04       90.07       89.11       88.15    
        87.21       86.27       85.34       84.42       83.50       82.60       81.69       80.80       79.90       79.01    
        78.12       77.23       76.34       75.45       74.56       73.66       72.75       71.84       70.92       70.00    
  49  -1000.0     -1000.0     -1000.0     -1000.0     -1000.0     -1000.0     -1000.0       108.3       107.8       107.1    
        106.6       105.9       105.2       104.3       103.4       102.3       101.3       100.2       99.20       98.17    
        97.12       96.08       95.05       94.04       93.04       92.04       91.06       90.09       89.12       88.17    
        87.22       86.29       85.36       84.44       83.52       82.61       81.71       80.81       79.92       79.02    
        78.13       77.24       76.35       75.46       74.56       73.66       72.76       71.84       70.92       70.00    
  50  -1000.0     -1000.0     -1000.0     -1000.0     -1000.0     -1000.0     -1000.0     -1000.0     -1000.0     -1000.0    
      -1000.0     -1000.0     -1000.0     -1000.0     -1000.0     -1000.0     -1000.0     -1000.0     -1000.0     -1000.0    
      -1000.0     -1000.0     -1000.0     -1000.0     -1000.0     -1000.0     -1000.0     -1000.0     -1000.0     -1000.0    
      -1000.0     -1000.0     -1000.0     -1000.0     -1000.0     -1000.0     -1000.0     -1000.0     -1000.0     -1000.0    
      -1000.0     -1000.0     -1000.0     -1000.0     -1000.0     -1000.0     -1000.0     -1000.0     -1000.0       70.00    
1
              HEAD IN LAYER   3 AT END OF TIME STEP   1 IN STRESS PERIOD    1
  ---------------------------------------------------------------------------

            1           2           3           4           5           6           7           8           9          10
           11          12          13          14          15          16          17          18          19          20
           21          22          23          24          25          26          27          28          29          30
[...]
        91.88       91.17       90.43       89.66       88.85       88.02       87.17       86.30       85.41       84.51    
        83.58       82.63       81.65       80.65       79.60       78.50       77.32       76.04       74.77       74.54    
        74.33       74.01       73.62       73.17       72.69       72.18       71.65       71.11       70.56       70.00    
  24  -1000.0       105.1       105.0       104.8       104.5       104.1       103.6       103.0       102.4       101.7    
        101.0       100.1       99.24       98.28       97.25       96.16       95.11       94.10       93.12       92.15    
        91.68       91.09       90.41       89.66       88.88       88.05       87.20       86.33       85.44       84.52    
        83.59       82.63       81.66       80.65       79.62       78.56       77.48       76.41       75.48       74.91    
        74.48       74.06       73.63       73.17       72.68       72.17       71.64       71.10       70.55       70.00    
  25  -1000.0       105.0       104.9       104.6       104.3       103.9       103.4       102.8       102.1       101.4    
        100.7       99.81       98.91       97.94       96.90       95.80       94.73       93.69       92.69       91.71    
        91.59       91.10       90.46       89.73       88.94       88.12       87.26       86.39       85.49       84.57    
        83.63       82.67       81.69       80.69       79.67       78.64       77.62       76.65       75.80       75.14    
        74.61       74.12       73.65       73.17       72.68       72.17       71.64       71.10       70.55       70.00    
  26  -1000.0       105.4       105.3       105.1       104.8       104.4       103.9       103.4       102.8       102.1    
        101.3       100.5       99.58       98.62       97.58       96.46       95.39       94.34       93.32       92.34    
        91.86       91.28       90.60       89.85       89.05       88.22       87.36       86.47       85.56       84.64    
        83.69       82.73       81.74       80.74       79.72       78.70       77.69       76.75       75.92       75.24    
        74.67       74.17       73.68       73.19       72.69       72.17       71.64       71.10       70.55       70.00    
  27  -1000.0       105.8       105.7       105.5       105.2       104.9       104.4       103.9       103.3       102.6    
        101.9       101.1       100.2       99.24       98.20       97.09       96.00       94.95       93.92       92.92    
        92.25       91.55       90.81       90.03       89.21       88.35       87.48       86.58       85.67       84.74    
        83.78       82.81       81.82       80.81       79.78       78.74       77.71       76.73       75.87       75.21    
        74.67       74.18       73.70       73.21       72.71       72.19       71.66       71.11       70.56       70.00    
  28  -1000.0       106.2       106.1       106.0       105.7       105.3       104.9       104.4       103.8       103.2    
        102.5       101.7       100.8       99.82       98.78       97.66       96.57       95.51       94.47       93.46    
        92.67       91.88       91.07       90.25       89.40       88.52       87.63       86.72       85.80       84.86    
        83.90       82.92       81.92       80.89       79.84       78.76       77.66       76.58       75.63       75.05    
        74.60       74.16       73.71       73.24       72.74       72.22       71.68       71.12       70.56       70.00    
  29  -1000.0       106.6       106.5       106.4       106.1       105.8       105.4       104.9       104.3       103.7    
        103.0       102.2       101.3       100.3       99.31       98.19       97.10       96.03       94.98       93.96    
        93.09       92.22       91.36       90.49       89.61       88.72       87.81       86.89       85.95       85.00    
        84.03       83.05       82.04       81.00       79.92       78.79       77.58       76.28       74.99       74.74    
        74.50       74.16       73.75       73.28       72.78       72.25       71.71       71.14       70.57       70.00    
  30  -1000.0       107.0       106.9       106.7       106.5       106.2       105.8       105.3       104.8       104.1    
        103.4       102.6       101.8       100.8       99.79       98.67       97.58       96.51       95.46       94.43    
        93.49       92.57       91.66       90.76       89.85       88.93       88.00       87.07       86.12       85.16    
        84.19       83.20       82.19       81.14       80.06       78.90       77.60       75.96       73.30       74.40    
        74.48       74.22       73.83       73.36       72.85       72.30       71.74       71.17       70.59       70.00    
  31  -1000.0       107.3       107.3       107.1       106.9       106.6       106.2       105.7       105.2       104.5    
        103.8       103.1       102.2       101.3       100.2       99.11       98.02       96.94       95.89       94.85    
        93.87       92.91       91.96       91.03       90.09       89.15       88.21       87.26       86.31       85.34    
        84.37       83.37       82.37       81.33       80.26       79.13       77.93       76.62       75.33       75.05    
        74.79       74.42       73.97       73.47       72.93       72.37       71.79       71.20       70.60       70.00    
  32  -1000.0       107.7       107.6       107.4       107.2       106.9       106.5       106.1       105.5       104.9    
        104.2       103.5       102.6       101.7       100.6       99.52       98.42       97.35       96.29       95.24    
        94.23       93.24       92.26       91.30       90.34       89.38       88.42       87.46       86.50       85.53    
        84.56       83.57       82.57       81.55       80.51       79.44       78.35       77.27       76.30       75.68    
        75.18       74.68       74.16       73.61       73.04       72.45       71.85       71.24       70.62       70.00    
  33  -1000.0       108.0       107.9       107.7       107.5       107.2       106.8       106.4       105.9       105.3    
        104.6       103.8       103.0       102.0       101.0       99.88       98.79       97.71       96.65       95.61    
        94.57       93.55       92.55       91.56       90.58       89.61       88.64       87.67       86.70       85.73    
        84.76       83.77       82.78       81.79       80.78       79.76       78.76       77.79       76.91       76.18    
        75.55       74.95       74.36       73.76       73.16       72.54       71.91       71.28       70.64       70.00    
  34  -1000.0       108.2       108.2       108.0       107.8       107.5       107.1       106.7       106.2       105.6    
        104.9       104.1       103.3       102.3       101.3       100.2       99.13       98.05       96.99       95.94    
        94.88       93.84       92.82       91.82       90.82       89.84       88.86       87.88       86.91       85.93    
        84.96       83.98       83.01       82.03       81.05       80.07       79.12       78.20       77.35       76.58    
        75.88       75.21       74.57       73.92       73.28       72.63       71.98       71.32       70.66       70.00    
  35  -1000.0       108.5       108.4       108.3       108.1       107.8       107.4       107.0       106.4       105.8    
        105.2       104.4       103.6       102.6       101.6       100.5       99.43       98.36       97.29       96.24    
        95.17       94.11       93.08       92.06       91.06       90.06       89.07       88.09       87.11       86.14    
        85.16       84.19       83.23       82.26       81.30       80.36       79.43       78.54       77.70       76.91    
        76.16       75.45       74.76       74.08       73.40       72.72       72.04       71.36       70.68       70.00    
  36  -1000.0       108.7       108.7       108.5       108.3       108.0       107.6       107.2       106.7       106.1    
        105.4       104.7       103.8       102.9       101.9       100.8       99.71       98.63       97.57       96.52    
        95.43       94.37       93.32       92.29       91.28       90.27       89.28       88.29       87.31       86.33    
        85.36       84.40       83.44       82.49       81.55       80.62       79.71       78.83       77.99       77.18    
        76.41       75.66       74.94       74.22       73.51       72.81       72.11       71.40       70.70       70.00    
  37  -1000.0       108.9       108.9       108.7       108.5       108.2       107.9       107.4       106.9       106.3    
        105.7       104.9       104.1       103.1       102.1       101.0       99.96       98.88       97.82       96.77    
        95.68       94.60       93.55       92.51       91.49       90.48       89.47       88.48       87.50       86.52    
        85.56       84.60       83.64       82.70       81.77       80.85       79.95       79.08       78.23       77.41    
        76.62       75.85       75.10       74.35       73.62       72.89       72.17       71.44       70.72       70.00    
  38  -1000.0       109.1       109.0       108.9       108.7       108.4       108.0       107.6       107.1       106.5    
        105.9       105.1       104.3       103.4       102.4       101.3       100.2       99.11       98.05       97.00    
        95.90       94.82       93.76       92.71       91.68       90.67       89.66       88.67       87.68       86.71    
        85.74       84.78       83.83       82.89       81.97       81.06       80.16       79.29       78.44       77.61    
        76.80       76.01       75.24       74.47       73.72       72.97       72.23       71.48       70.74       70.00    
  39  -1000.0       109.3       109.2       109.1       108.8       108.6       108.2       107.8       107.3       106.7    
        106.0       105.3       104.5       103.5       102.5       101.5       100.4       99.31       98.25       97.21    
        96.10       95.02       93.95       92.90       91.86       90.84       89.83       88.84       87.85       86.87    
        85.91       84.95       84.01       83.07       82.15       81.24       80.35       79.47       78.62       77.78    
        76.96       76.15       75.36       74.58       73.81       73.04       72.28       71.52       70.76       70.00    
  40  -1000.0       109.4       109.3       109.2       109.0       108.7       108.3       107.9       107.4       106.8    
        106.2       105.4       104.6       103.7       102.7       101.6       100.6       99.49       98.44       97.39    
        96.28       95.19       94.12       93.07       92.03       91.01       89.99       89.00       88.01       87.03    
        86.06       85.11       84.16       83.23       82.31       81.40       80.51       79.63       78.77       77.93    
        77.10       76.28       75.47       74.68       73.89       73.10       72.32       71.55       70.77       70.00    
  41  -1000.0       109.5       109.5       109.3       109.1       108.8       108.5       108.0       107.5       107.0    
        106.3       105.6       104.7       103.8       102.9       101.8       100.7       99.65       98.60       97.55    
        96.44       95.35       94.28       93.22       92.18       91.15       90.14       89.14       88.15       87.17    
        86.21       85.25       84.31       83.38       82.46       81.55       80.65       79.77       78.91       78.06    
        77.22       76.39       75.57       74.76       73.96       73.16       72.37       71.58       70.79       70.00    
  42  -1000.0     -1000.0       109.6       109.4       109.2       108.9       108.6       108.1       107.6       107.1    
        106.4       105.7       104.9       104.0       103.0       101.9       100.8       99.78       98.73       97.69    
        96.58       95.49       94.41       93.36       92.31       91.28       90.27       89.27       88.28       87.30    
        86.33       85.38       84.43       83.50       82.58       81.67       80.78       79.89       79.02       78.16    
        77.32       76.48       75.65       74.83       74.02       73.21       72.40       71.60       70.80       70.00    
  43  -1000.0     -1000.0     -1000.0       109.5       109.3       109.0       108.6       108.2       107.7       107.1    
        106.5       105.8       105.0       104.1       103.1       102.0       101.0       99.90       98.85       97.81    
        96.70       95.61       94.53       93.47       92.43       91.40       90.38       89.38       88.39       87.41    
        86.44       85.49       84.54       83.61       82.69       81.78       80.88       80.00       79.12       78.26    
        77.40       76.56       75.72       74.89       74.07       73.25       72.43       71.62       70.81       70.00    
  44  -1000.0     -1000.0     -1000.0     -1000.0       109.3       109.0       108.7       108.2       107.8       107.2    
        106.5       105.8       105.0       104.1       103.2       102.1       101.0      100.00       98.95       97.92    
        96.81       95.71       94.64       93.58       92.53       91.50       90.48       89.48       88.49       87.51    
        86.54       85.58       84.64       83.71       82.78       81.87       80.97       80.08       79.21       78.34    
        77.48       76.63       75.78       74.94       74.11       73.29       72.46       71.64       70.82       70.00    
  45  -1000.0     -1000.0     -1000.0     -1000.0     -1000.0       109.0       108.7       108.3       107.8       107.2    
        106.6       105.9       105.1       104.2       103.2       102.2       101.1       100.1       99.04       98.00    
        96.89       95.80       94.72       93.66       92.61       91.58       90.56       89.56       88.57       87.59    
        86.62       85.66       84.72       83.78       82.86       81.95       81.05       80.16       79.27       78.40    
        77.54       76.68       75.83       74.99       74.15       73.31       72.48       71.65       70.83       70.00    
  46  -1000.0     -1000.0     -1000.0     -1000.0     -1000.0     -1000.0       108.7       108.3       107.8       107.2    
        106.6       105.9       105.1       104.3       103.3       102.2       101.2       100.1       99.10       98.07    
        96.96       95.87       94.79       93.73       92.68       91.65       90.63       89.62       88.63       87.65    
        86.68       85.73       84.78       83.85       82.92       82.01       81.10       80.21       79.33       78.45    
        77.58       76.72       75.87       75.02       74.18       73.34       72.50       71.67       70.83       70.00    
  47  -1000.0     -1000.0     -1000.0     -1000.0     -1000.0     -1000.0     -1000.0       108.2       107.8       107.2    
        106.6       105.9       105.2       104.3       103.3       102.3       101.2       100.2       99.15       98.12    
        97.01       95.92       94.84       93.78       92.73       91.70       90.68       89.67       88.68       87.70    
        86.73       85.77       84.83       83.89       82.97       82.05       81.15       80.25       79.37       78.49    
        77.62       76.75       75.90       75.05       74.20       73.35       72.51       71.67       70.84       70.00    
  48  -1000.0     -1000.0     -1000.0     -1000.0     -1000.0     -1000.0     -1000.0     -1000.0       107.7       107.2    
        106.6       105.9       105.2       104.3       103.4       102.3       101.3       100.2       99.18       98.15    
        97.04       95.95       94.87       93.81       92.76       91.73       90.71       89.71       88.71       87.73    
        86.76       85.80       84.86       83.92       83.00       82.08       81.18       80.28       79.39       78.51    
        77.64       76.78       75.92       75.06       74.21       73.37       72.52       71.68       70.84       70.00    
  49  -1000.0     -1000.0     -1000.0     -1000.0     -1000.0     -1000.0     -1000.0     -1000.0     -1000.0       107.1    
        106.6       105.9       105.2       104.3       103.4       102.3       101.3       100.2       99.20       98.17    
        97.06       95.97       94.89       93.83       92.78       91.75       90.73       89.72       88.73       87.75    
        86.78       85.82       84.87       83.94       83.01       82.10       81.19       80.29       79.41       78.53    
        77.65       76.79       75.93       75.07       74.22       73.37       72.53       71.68       70.84       70.00    
  50  -1000.0     -1000.0     -1000.0     -1000.0     -1000.0     -1000.0     -1000.0     -1000.0     -1000.0     -1000.0    
      -1000.0     -1000.0     -1000.0     -1000.0     -1000.0     -1000.0     -1000.0     -1000.0     -1000.0     -1000.0    
      -1000.0     -1000.0     -1000.0     -1000.0     -1000.0     -1000.0     -1000.0     -1000.0     -1000.0     -1000.0    
      -1000.0     -1000.0     -1000.0     -1000.0     -1000.0     -1000.0     -1000.0     -1000.0     -1000.0     -1000.0    
      -1000.0     -1000.0     -1000.0     -1000.0     -1000.0     -1000.0     -1000.0     -1000.0     -1000.0       70.00    

 HEAD WILL BE SAVED ON UNIT   51 AT END OF TIME STEP    1, STRESS PERIOD    1

 DRAWDOWN WILL BE SAVED ON UNIT   52 AT END OF TIME STEP    1, STRESS PERIOD    1
1
  VOLUMETRIC BUDGET FOR ENTIRE MODEL AT END OF TIME STEP    1, STRESS PERIOD   1
  ------------------------------------------------------------------------------

     CUMULATIVE VOLUMES      L**3       RATES FOR THIS TIME STEP      L**3/T
     ------------------                 ------------------------

           IN:                                      IN:
           ---                                      ---
             STORAGE =           0.0000               STORAGE =           0.0000
       CONSTANT HEAD =           0.0000         CONSTANT HEAD =           0.0000
               WELLS =         375.0000                 WELLS =         375.0000
       RIVER LEAKAGE =         544.4821         RIVER LEAKAGE =         544.4821
                  ET =           0.0000                    ET =           0.0000
            RECHARGE =       33199.9961              RECHARGE =       33199.9961

            TOTAL IN =       34119.4766              TOTAL IN =       34119.4766

          OUT:                                     OUT:
          ----                                     ----
             STORAGE =           0.0000               STORAGE =           0.0000
       CONSTANT HEAD =       13499.5449         CONSTANT HEAD =       13499.5449
               WELLS =        7500.0000                 WELLS =        7500.0000
       RIVER LEAKAGE =       12437.8682         RIVER LEAKAGE =       12437.8682
                  ET =         682.0460                    ET =         682.0460
            RECHARGE =           0.0000              RECHARGE =           0.0000

           TOTAL OUT =       34119.4609             TOTAL OUT =       34119.4609

            IN - OUT =       1.5625E-02              IN - OUT =       1.5625E-02

 PERCENT DISCREPANCY =           0.00     PERCENT DISCREPANCY =           0.00






         TIME SUMMARY AT END OF TIME STEP    1 IN STRESS PERIOD    1
                    SECONDS     MINUTES      HOURS       DAYS        YEARS
                    -----------------------------------------------------------
   TIME STEP LENGTH  86400.      1440.0      24.000      1.0000     2.73785E-03
 STRESS PERIOD TIME  86400.      1440.0      24.000      1.0000     2.73785E-03
         TOTAL TIME  86400.      1440.0      24.000      1.0000     2.73785E-03
1

 Run end date and time (yyyy/mm/dd hh:mm:ss): 2026/02/25  7:16:15
 Elapsed run time: 14.773 Seconds

