                                  MODFLOW-2005     
      U.S. GEOLOGICAL SURVEY MODULAR FINITE-DIFFERENCE GROUND-WATER FLOW MODEL
                            VERSION 1.12.00 2/3/2017

 LIST FILE: static_ensemble_S1bc_1131331.list
                         UNIT    2

 OPENING static_ensemble_S1bc_1131331.dis
 FILE TYPE:DIS   UNIT   11   STATUS:OLD    
 FORMAT:FORMATTED              ACCESS:SEQUENTIAL          

 OPENING static_ensemble_S1bc_1131331.bas
 FILE TYPE:BAS6   UNIT   13   STATUS:OLD    
 FORMAT:FORMATTED              ACCESS:SEQUENTIAL          

 OPENING static_ensemble_S1bc_1131331.lpf
 FILE TYPE:LPF   UNIT   15   STATUS:OLD    
 FORMAT:FORMATTED              ACCESS:SEQUENTIAL          

 OPENING static_ensemble_S1bc_1131331.evt
 FILE TYPE:EVT   UNIT   22   STATUS:OLD    
 FORMAT:FORMATTED              ACCESS:SEQUENTIAL          

 OPENING static_ensemble_S1bc_1131331.rch
 FILE TYPE:RCH   UNIT   19   STATUS:OLD    
 FORMAT:FORMATTED              ACCESS:SEQUENTIAL          

 OPENING static_ensemble_S1bc_1131331.riv
 FILE TYPE:RIV   UNIT   18   STATUS:OLD    
 FORMAT:FORMATTED              ACCESS:SEQUENTIAL          

 OPENING static_ensemble_S1bc_1131331.wel
 FILE TYPE:WEL   UNIT   20   STATUS:OLD    
 FORMAT:FORMATTED              ACCESS:SEQUENTIAL          

 OPENING static_ensemble_S1bc_1131331.oc
 FILE TYPE:OC   UNIT   14   STATUS:OLD    
 FORMAT:FORMATTED              ACCESS:SEQUENTIAL          

 OPENING static_ensemble_S1bc_1131331.pcg
 FILE TYPE:PCG   UNIT   27   STATUS:OLD    
 FORMAT:FORMATTED              ACCESS:SEQUENTIAL          

 OPENING static_ensemble_S1bc_1131331.cbc
 FILE TYPE:DATA(BINARY)   UNIT   53   STATUS:REPLACE
 FORMAT:UNFORMATTED            ACCESS:STREAM              

 OPENING static_ensemble_S1bc_1131331.hds
 FILE TYPE:DATA(BINARY)   UNIT   51   STATUS:REPLACE
 FORMAT:UNFORMATTED            ACCESS:STREAM              

 OPENING static_ensemble_S1bc_1131331.ddn
 FILE TYPE:DATA(BINARY)   UNIT   52   STATUS:REPLACE
 FORMAT:UNFORMATTED            ACCESS:STREAM              

 BAS -- BASIC PACKAGE, VERSION 7, 5/2/2005 INPUT READ FROM UNIT   13
 
 MODFLOW was compiled using mixed precision
 Precision of REAL variables:           6
 Precision of DOUBLE PRECISION variables:          15

 DISCRETIZATION INPUT DATA READ FROM UNIT   11
 # DIS package for MODFLOW-2005 generated by Flopy 3.10.0
    3 LAYERS        50 ROWS        50 COLUMNS
    1 STRESS PERIOD(S) IN SIMULATION
 MODEL TIME UNIT IS DAYS
 MODEL LENGTH UNIT IS METERS
  Confining bed flag for each layer:
   0   0   0

                     DELR =   1000.00    

                     DELC =   1000.00    



           TOP ELEVATION OF LAYER 1
 READING ON UNIT   11 WITH FORMAT: (50E15.6)           



             MODEL LAYER BOTTOM EL. FOR LAYER   1
 READING ON UNIT   11 WITH FORMAT: (50E15.6)           



             MODEL LAYER BOTTOM EL. FOR LAYER   2
 READING ON UNIT   11 WITH FORMAT: (50E15.6)           



             MODEL LAYER BOTTOM EL. FOR LAYER   3
 READING ON UNIT   11 WITH FORMAT: (50E15.6)           


 STRESS PERIOD     LENGTH       TIME STEPS     MULTIPLIER FOR DELT    SS FLAG
 ----------------------------------------------------------------------------
        1         1.000000          1                    1.000         SS

 STEADY-STATE SIMULATION



 
 # BAS6 package for MODFLOW-2005 generated by Flopy 3.10.0                       
 THE FREE FORMAT OPTION HAS BEEN SELECTED



                     BOUNDARY ARRAY FOR LAYER   1
 READING ON UNIT   13 WITH FORMAT: (50I10)             



                     BOUNDARY ARRAY FOR LAYER   2
 READING ON UNIT   13 WITH FORMAT: (50I10)             



                     BOUNDARY ARRAY FOR LAYER   3
 READING ON UNIT   13 WITH FORMAT: (50I10)             

 AQUIFER HEAD WILL BE SET TO  -999.99     AT ALL NO-FLOW NODES (IBOUND=0).



                       INITIAL HEAD FOR LAYER   1
 READING ON UNIT   13 WITH FORMAT: (50E15.6)           



                       INITIAL HEAD FOR LAYER   2
 READING ON UNIT   13 WITH FORMAT: (50E15.6)           



                       INITIAL HEAD FOR LAYER   3
 READING ON UNIT   13 WITH FORMAT: (50E15.6)           
 # OC package for MODFLOW-2005 generated by Flopy 3.10.0

 OUTPUT CONTROL IS SPECIFIED ONLY AT TIME STEPS FOR WHICH OUTPUT IS DESIRED
 COMPACT CELL-BY-CELL BUDGET FILES WILL BE WRITTEN
 AUXILIARY DATA WILL BE SAVED IN CELL-BY-CELL BUDGET FILES
 HEAD PRINT FORMAT CODE IS   0    DRAWDOWN PRINT FORMAT CODE IS   0
 HEADS WILL BE SAVED ON UNIT   51    DRAWDOWNS WILL BE SAVED ON UNIT   52

 LPF -- LAYER-PROPERTY FLOW PACKAGE, VERSION 7, 5/2/2005
         INPUT READ FROM UNIT   15
 # LPF package for MODFLOW-2005 generated by Flopy 3.10.0
 CELL-BY-CELL FLOWS WILL BE SAVED ON UNIT   53
 HEAD AT CELLS THAT CONVERT TO DRY= -1.00000E+30
 No named parameters
 STORAGECOEFFICIENT OPTION:
 Read storage coefficient rather than specific storage

   LAYER FLAGS:
 LAYER       LAYTYP        LAYAVG         CHANI        LAYVKA        LAYWET
 ---------------------------------------------------------------------------
    1             1             0     1.000E+00             0             0
    2             1             0     1.000E+00             0             0
    3             1             0     1.000E+00             0             0

   INTERPRETATION OF LAYER FLAGS:
                        INTERBLOCK     HORIZONTAL    DATA IN
         LAYER TYPE   TRANSMISSIVITY   ANISOTROPY   ARRAY VKA   WETTABILITY
 LAYER      (LAYTYP)      (LAYAVG)       (CHANI)      (LAYVKA)      (LAYWET)
 ---------------------------------------------------------------------------
    1   CONVERTIBLE      HARMONIC     1.000E+00    VERTICAL K  NON-WETTABLE
    2   CONVERTIBLE      HARMONIC     1.000E+00    VERTICAL K  NON-WETTABLE
    3   CONVERTIBLE      HARMONIC     1.000E+00    VERTICAL K  NON-WETTABLE

 WETTING CAPABILITY IS NOT ACTIVE IN ANY LAYER



              HYD. COND. ALONG ROWS FOR LAYER   1
 READING ON UNIT   15 WITH FORMAT: (50E15.6)           



                VERTICAL HYD. COND. FOR LAYER   1
 READING ON UNIT   15 WITH FORMAT: (50E15.6)           



              HYD. COND. ALONG ROWS FOR LAYER   2
 READING ON UNIT   15 WITH FORMAT: (50E15.6)           



                VERTICAL HYD. COND. FOR LAYER   2
 READING ON UNIT   15 WITH FORMAT: (50E15.6)           



              HYD. COND. ALONG ROWS FOR LAYER   3
 READING ON UNIT   15 WITH FORMAT: (50E15.6)           



                VERTICAL HYD. COND. FOR LAYER   3
 READING ON UNIT   15 WITH FORMAT: (50E15.6)           

 WEL -- WELL PACKAGE, VERSION 7, 5/2/2005 INPUT READ FROM UNIT   20
 # WEL package for MODFLOW-2005 generated by Flopy 3.10.0
 No named parameters
 MAXIMUM OF      3 ACTIVE WELLS AT ONE TIME


     0 Well parameters

 RIV -- RIVER PACKAGE, VERSION 7, 5/2/2005 INPUT READ FROM UNIT   18
 # RIV package for MODFLOW-2005 generated by Flopy 3.10.0
 No named parameters
 MAXIMUM OF     49 ACTIVE RIVER REACHES AT ONE TIME
 CELL-BY-CELL FLOWS WILL BE SAVED ON UNIT   53


     0 River parameters

 EVT -- EVAPOTRANSPIRATION PACKAGE, VERSION 7, 5/2/2005
         INPUT READ FROM UNIT   22
 # EVT package for MODFLOW-2005 generated by Flopy 3.10.0
 No named parameters
 OPTION 3 -- EVAPOTRANSPIRATION FROM HIGHEST ACTIVE NODE IN EACH VERTICAL COLUMN
 CELL-BY-CELL FLOWS WILL BE SAVED ON UNIT   53


     0 Evapotranspiration parameters

 RCH -- RECHARGE PACKAGE, VERSION 7, 5/2/2005 INPUT READ FROM UNIT   19
 # RCH package for MODFLOW-2005 generated by Flopy 3.10.0
 No named parameters
 OPTION 3 -- RECHARGE TO HIGHEST ACTIVE NODE IN EACH VERTICAL COLUMN
 CELL-BY-CELL FLOWS WILL BE SAVED ON UNIT   53


     0 Recharge parameters

 PCG -- CONJUGATE-GRADIENT SOLUTION PACKAGE, VERSION 7, 5/2/2005
 # PCG package for MODFLOW-2005 generated by Flopy 3.10.0
 MAXIMUM OF   5000 CALLS OF SOLUTION ROUTINE
 MAXIMUM OF    500 INTERNAL ITERATIONS PER CALL TO SOLUTION ROUTINE
 MATRIX PRECONDITIONING TYPE :    1



                                    SOLUTION BY THE CONJUGATE-GRADIENT METHOD
                                   -------------------------------------------
                    MAXIMUM NUMBER OF CALLS TO PCG ROUTINE =     5000
                        MAXIMUM ITERATIONS PER CALL TO PCG =      500
                               MATRIX PRECONDITIONING TYPE =        1
        RELAXATION FACTOR (ONLY USED WITH PRECOND. TYPE 1) =    0.97000E+00
 PARAMETER OF POLYNOMIAL PRECOND. = 2 (2) OR IS CALCULATED :        0
                         HEAD CHANGE CRITERION FOR CLOSURE =    0.10000E-04
                     RESIDUAL CHANGE CRITERION FOR CLOSURE =    0.10000E-04
            PCG HEAD AND RESIDUAL CHANGE PRINTOUT INTERVAL =      999
     PRINTING FROM SOLVER IS LIMITED(1) OR SUPPRESSED (>1) =        3
                            STEADY-STATE DAMPING PARAMETER =    0.10000E-01
                               TRANSIENT DAMPING PARAMETER =    0.10000E-01
1
                            STRESS PERIOD NO.    1, LENGTH =   1.000000    
                            -----------------------------------------------

                              NUMBER OF TIME STEPS =     1

                               MULTIPLIER FOR DELT =     1.000

                            INITIAL TIME STEP SIZE =   1.000000    

 WELL NO.  LAYER   ROW   COL   STRESS RATE         
 --------------------------------------------------
      1      3     22     39      -1500.    
      2      1     13     15      -4500.    
      3      1     25     26       375.0    

      3 WELLS

 REACH NO.  LAYER   ROW   COL     STAGE      CONDUCTANCE     BOTTOM EL.         
 -------------------------------------------------------------------------------
      1      1     25      2       100.5           50.00           98.00    
      2      1     25      3       99.50           50.00           97.00    
      3      1     25      4       98.50           50.00           96.00    
      4      1     25      5       97.50           50.00           95.00    
      5      1     25      6       96.50           50.00           94.00    
      6      1     25      7       95.50           50.00           93.00    
      7      1     25      8       94.50           50.00           92.00    
      8      1     25      9       93.50           50.00           91.00    
      9      1     25     10       92.50           50.00           90.00    
     10      1     25     11       91.50           50.00           89.00    
     11      1     25     12       90.50           50.00           88.00    
     12      1     25     13       89.50           50.00           87.00    
     13      1     25     14       88.50           50.00           86.00    
     14      1     25     15       87.50           50.00           85.00    
     15      1     25     16       86.50           50.00           84.00    
     16      1     25     17       85.50           50.00           83.00    
     17      1     25     18       84.50           50.00           82.00    
     18      1     25     19       83.50           50.00           81.00    
     19      1     25     20       82.50           50.00           80.00    
     20      1     25     21       81.50           50.00           79.00    
     21      1     25     22       80.50           50.00           78.00    
     22      1     25     23       79.50           50.00           77.00    
     23      1     25     24       78.50           50.00           76.00    
     24      1     25     25       77.50           50.00           75.00    
     25      1     25     26       77.40           50.00           74.90    
     26      1     25     27       77.30           50.00           74.80    
     27      1     25     28       77.20           50.00           74.70    
     28      1     25     29       77.10           50.00           74.60    
     29      1     25     30       77.00           50.00           74.50    
     30      1     25     31       76.90           50.00           74.40    
     31      1     25     32       76.80           50.00           74.30    
     32      1     25     33       76.70           50.00           74.20    
     33      1     25     34       76.60           50.00           74.10    
     34      1     25     35       76.50           50.00           74.00    
     35      1     25     36       76.40           50.00           73.90    
     36      1     25     37       76.30           50.00           73.80    
     37      1     25     38       76.20           50.00           73.70    
     38      1     25     39       76.10           50.00           73.60    
     39      1     25     40       76.00           50.00           73.50    
     40      1     25     41       75.90           50.00           73.40    
     41      1     25     42       75.80           50.00           73.30    
     42      1     25     43       75.70           50.00           73.20    
     43      1     25     44       75.60           50.00           73.10    
     44      1     25     45       75.50           50.00           73.00    
     45      1     25     46       75.40           50.00           72.90    
     46      1     25     47       75.30           50.00           72.80    
     47      1     25     48       75.20           50.00           72.70    
     48      1     25     49       75.10           50.00           72.60    
     49      1     25     50       75.00           50.00           72.50    

     49 RIVER REACHES



                         ET SURFACE
 READING ON UNIT   22 WITH FORMAT: (50E15.6)           



            EVAPOTRANSPIRATION RATE
 READING ON UNIT   22 WITH FORMAT: (50E15.6)           

         EXTINCTION DEPTH =   10.0000    



                           RECHARGE
 READING ON UNIT   19 WITH FORMAT: (50E15.6)           
 
 SOLVING FOR HEAD 

 OUTPUT CONTROL FOR STRESS PERIOD    1   TIME STEP    1
    SAVE HEAD FOR ALL LAYERS
    SAVE DRAWDOWN FOR ALL LAYERS
    SAVE BUDGET
    PRINT HEAD FOR ALL LAYERS
    PRINT BUDGET
 UBDSV2 SAVING "   CONSTANT HEAD" ON UNIT  53 AT TIME STEP  1, STRESS PERIOD   1
 UBDSV1 SAVING "FLOW RIGHT FACE " ON UNIT  53 AT TIME STEP  1, STRESS PERIOD   1
 UBDSV1 SAVING "FLOW FRONT FACE " ON UNIT  53 AT TIME STEP  1, STRESS PERIOD   1
 UBDSV1 SAVING "FLOW LOWER FACE " ON UNIT  53 AT TIME STEP  1, STRESS PERIOD   1
 UBDSV4 SAVING "   RIVER LEAKAGE" ON UNIT  53 AT TIME STEP  1, STRESS PERIOD   1
 UBDSV3 SAVING "              ET" ON UNIT  53 AT TIME STEP  1, STRESS PERIOD   1
 UBDSV3 SAVING "        RECHARGE" ON UNIT  53 AT TIME STEP  1, STRESS PERIOD   1
1
              HEAD IN LAYER   1 AT END OF TIME STEP   1 IN STRESS PERIOD    1
  ---------------------------------------------------------------------------

            1           2           3           4           5           6           7           8           9          10
           11          12          13          14          15          16          17          18          19          20
           21          22          23          24          25          26          27          28          29          30
           31          32          33          34          35          36          37          38          39          40
           41          42          43          44          45          46          47          48          49          50
 ........................................................................................................................
   1    70.00       70.07       70.12       70.13       70.13       70.10       70.04       69.97       69.88       69.78    
        69.66       69.53       69.40       69.27       69.13       68.99       68.87       68.78       68.71       68.67    
        68.64       68.62       68.62       68.62       68.63       68.65       68.68       68.70       68.73       68.76    
        68.80       68.84       68.88       68.92       68.97       69.01       69.07       69.12       69.18       69.24    
        69.31       69.37       69.45       69.52       69.60       69.67       69.75       69.84       69.92       70.00    
   2    70.00       70.07       70.11       70.13       70.12       70.09       70.03       69.96       69.87       69.76    
        69.64       69.51       69.38       69.24       69.10       68.96       68.85       68.76       68.69       68.65    
        68.62       68.61       68.61       68.61       68.63       68.65       68.67       68.70       68.73       68.76    
        68.80       68.83       68.87       68.92       68.96       69.01       69.06       69.12       69.18       69.24    
        69.30       69.37       69.44       69.52       69.59       69.67       69.75       69.83       69.92       70.00    
   3    70.00       70.07       70.11       70.12       70.11       70.07       70.02       69.94       69.84       69.73    
        69.60       69.47       69.33       69.19       69.05       68.91       68.80       68.71       68.65       68.62    
        68.59       68.59       68.59       68.60       68.62       68.64       68.66       68.69       68.72       68.76    
        68.79       68.83       68.87       68.91       68.96       69.01       69.06       69.11       69.17       69.23    
        69.30       69.37       69.44       69.51       69.59       69.67       69.75       69.83       69.92       70.00    
   4    70.00       70.07       70.10       70.11       70.10       70.06       69.99       69.90       69.80       69.67    
        69.54       69.40       69.25       69.10       68.96       68.82       68.72       68.64       68.59       68.56    
        68.55       68.55       68.56       68.58       68.60       68.63       68.65       68.68       68.72       68.75    
        68.79       68.82       68.86       68.90       68.95       69.00       69.05       69.10       69.16       69.22    
        69.29       69.36       69.43       69.50       69.58       69.66       69.75       69.83       69.91       70.00    
   5    70.00       70.06       70.10       70.10       70.08       70.03       69.96       69.86       69.74       69.61    
        69.46       69.30       69.14       68.99       68.84       68.71       68.61       68.55       68.51       68.50    
        68.50       68.51       68.53       68.55       68.58       68.61       68.64       68.67       68.71       68.74    
        68.78       68.81       68.85       68.89       68.94       68.98       69.03       69.09       69.15       69.21    
        69.27       69.34       69.42       69.49       69.57       69.65       69.74       69.83       69.91       70.00    
   6    70.00       70.06       70.09       70.09       70.06       70.00       69.92       69.81       69.68       69.52    
        69.35       69.18       69.00       68.83       68.68       68.55       68.47       68.42       68.41       68.41    
        68.43       68.46       68.49       68.53       68.56       68.59       68.63       68.66       68.70       68.73    
        68.77       68.80       68.84       68.88       68.92       68.97       69.02       69.07       69.13       69.19    
        69.26       69.33       69.40       69.48       69.56       69.64       69.73       69.82       69.91       70.00    
   7    70.00       70.05       70.08       70.08       70.04       69.98       69.88       69.76       69.60       69.43    
        69.23       69.02       68.82       68.63       68.48       68.35       68.29       68.27       68.28       68.32    
        68.36       68.40       68.45       68.50       68.54       68.58       68.62       68.65       68.69       68.72    
        68.75       68.79       68.83       68.86       68.91       68.95       69.00       69.05       69.11       69.17    
        69.24       69.31       69.38       69.46       69.54       69.63       69.72       69.81       69.91       70.00    
   8    70.00       70.05       70.07       70.06       70.02       69.95       69.84       69.70       69.52       69.32    
        69.09       68.84       68.59       68.37       68.20       68.09       68.06       68.09       68.14       68.21    
        68.28       68.35       68.41       68.47       68.52       68.56       68.61       68.64       68.68       68.71    
        68.74       68.77       68.81       68.84       68.88       68.93       68.97       69.03       69.08       69.14    
        69.21       69.28       69.36       69.44       69.53       69.62       69.71       69.80       69.90       70.00    
   9    70.00       70.05       70.07       70.06       70.01       69.93       69.81       69.65       69.45       69.20    
        68.93       68.62       68.31       68.03       67.83       67.75       67.78       67.87       67.98       68.10    
        68.20       68.30       68.38       68.45       68.51       68.56       68.60       68.63       68.67       68.70    
        68.73       68.76       68.79       68.82       68.86       68.90       68.95       68.99       69.05       69.11    
        69.18       69.25       69.33       69.41       69.50       69.60       69.69       69.79       69.90       70.00    
  10    70.00       70.05       70.07       70.05       70.00       69.92       69.78       69.61       69.38       69.10    
        68.76       68.38       67.97       67.58       67.32       67.30       67.43       67.63       67.82       67.99    
        68.14       68.26       68.36       68.44       68.50       68.55       68.60       68.63       68.66       68.69    
        68.72       68.74       68.77       68.80       68.83       68.87       68.91       68.96       69.01       69.07    
        69.14       69.21       69.29       69.38       69.47       69.57       69.68       69.78       69.89       70.00    
  11    70.00       70.05       70.07       70.06       70.01       69.92       69.78       69.59       69.33       69.02    
        68.62       68.13       67.56       66.96       66.52       66.68       67.03       67.38       67.68       67.92    
        68.10       68.25       68.36       68.44       68.51       68.56       68.60       68.63       68.66       68.68    
        68.70       68.72       68.75       68.77       68.80       68.83       68.87       68.92       68.97       69.03    
        69.10       69.17       69.25       69.34       69.44       69.54       69.65       69.77       69.88       70.00    
  12    70.00       70.06       70.08       70.08       70.03       69.93       69.79       69.59       69.33       68.98    
        68.53       67.94       67.16       66.14       65.07       65.86       66.63       67.19       67.60       67.89    
        68.10       68.26       68.38       68.47       68.53       68.58       68.61       68.64       68.66       68.67    
        68.69       68.70       68.72       68.74       68.76       68.79       68.83       68.87       68.92       68.98    
        69.05       69.12       69.21       69.30       69.40       69.51       69.63       69.75       69.87       70.00    
  13    70.00       70.07       70.10       70.10       70.06       69.97       69.84       69.64       69.37       69.02    
        68.55       67.90       66.94       65.31       61.61       65.02       66.42       67.16       67.62       67.94    
        68.16       68.32       68.43       68.51       68.57       68.61       68.63       68.65       68.66       68.67    
        68.68       68.68       68.69       68.71       68.72       68.75       68.78       68.82       68.86       68.92    
        68.98       69.06       69.15       69.24       69.35       69.47       69.59       69.73       69.86       70.00    
  14    70.00       70.08       70.13       70.14       70.11       70.03       69.91       69.73       69.48       69.14    
        68.70       68.13       67.35       66.35       65.29       66.07       66.84       67.40       67.80       68.08    
        68.28       68.42       68.52       68.58       68.63       68.65       68.66       68.67       68.67       68.67    
        68.66       68.66       68.66       68.67       68.68       68.69       68.72       68.75       68.80       68.85    
        68.91       68.99       69.08       69.18       69.29       69.42       69.55       69.70       69.85       70.00    
  15    70.00       70.10       70.16       70.19       70.17       70.12       70.01       69.85       69.63       69.34    
        68.97       68.51       67.96       67.37       66.94       67.10       67.46       67.80       68.08       68.30    
        68.46       68.56       68.63       68.68       68.70       68.71       68.70       68.69       68.68       68.66    
        68.65       68.64       68.63       68.62       68.62       68.63       68.65       68.68       68.72       68.77    
        68.83       68.91       69.00       69.10       69.22       69.36       69.50       69.66       69.83       70.00    
  16    70.00       70.12       70.20       70.25       70.25       70.22       70.14       70.01       69.83       69.59    
        69.29       68.94       68.55       68.19       67.95       67.93       68.07       68.26       68.43       68.58    
        68.68       68.74       68.78       68.79       68.79       68.77       68.75       68.72       68.69       68.66    
        68.63       68.61       68.59       68.57       68.56       68.57       68.58       68.60       68.63       68.68    
        68.74       68.81       68.90       69.01       69.14       69.28       69.44       69.62       69.81       70.00    
  17    70.00       70.14       70.24       70.32       70.35       70.34       70.29       70.19       70.05       69.86    
        69.63       69.37       69.10       68.85       68.67       68.61       68.64       68.72       68.81       68.89    
        68.93       68.95       68.94       68.92       68.88       68.84       68.80       68.75       68.70       68.65    
        68.61       68.57       68.54       68.51       68.50       68.49       68.49       68.50       68.53       68.57    
        68.63       68.70       68.79       68.90       69.03       69.18       69.36       69.56       69.78       70.00    
  18    70.00       70.17       70.30       70.40       70.46       70.48       70.45       70.39       70.29       70.15    
        69.98       69.78       69.58       69.40       69.26       69.17       69.15       69.18       69.21       69.23    
        69.21       69.17       69.12       69.06       68.99       68.92       68.84       68.77       68.70       68.64    
        68.58       68.53       68.49       68.45       68.42       68.40       68.39       68.40       68.42       68.45    
        68.50       68.56       68.65       68.76       68.90       69.06       69.26       69.48       69.73       70.00    
  19    70.00       70.20       70.36       70.48       70.57       70.62       70.63       70.60       70.54       70.44    
        70.31       70.17       70.02       69.88       69.75       69.66       69.62       69.62       69.62       69.59    
        69.51       69.41       69.31       69.20       69.10       68.99       68.89       68.80       68.71       68.62    
        68.55       68.48       68.42       68.38       68.34       68.31       68.29       68.28       68.29       68.31    
        68.35       68.41       68.49       68.60       68.73       68.91       69.12       69.37       69.67       70.00    
  20    70.00       70.23       70.42       70.58       70.70       70.78       70.82       70.82       70.79       70.73    
        70.64       70.53       70.41       70.30       70.19       70.10       70.05       70.04       70.05       69.98    
        69.82       69.66       69.50       69.35       69.20       69.06       68.93       68.81       68.70       68.59    
        68.50       68.42       68.35       68.29       68.24       68.20       68.17       68.15       68.15       68.16    
        68.18       68.23       68.30       68.40       68.53       68.70       68.93       69.22       69.58       70.00    
  21    70.00       70.27       70.50       70.69       70.84       70.95       71.02       71.05       71.04       71.01    
        70.95       70.87       70.78       70.68       70.58       70.49       70.45       70.46       70.56       70.46    
        70.14       69.89       69.68       69.48       69.29       69.12       68.96       68.81       68.67       68.55    
        68.45       68.35       68.27       68.20       68.13       68.08       68.04       68.01       67.99       67.98    
        67.99       68.02       68.08       68.16       68.28       68.44       68.67       68.98       69.41       70.00    
  22    70.00       70.31       70.58       70.81       70.99       71.13       71.22       71.28       71.30       71.29    
        71.25       71.19       71.11       71.03       70.93       70.84       70.78       70.77       70.85       70.72    
        70.37       70.10       69.84       69.59       69.37       69.17       68.98       68.79       68.63       68.49    
        68.37       68.27       68.17       68.09       68.02       67.95       67.90       67.85       67.82       67.79    
        67.78       67.79       67.82       67.88       67.97       68.10       68.30       68.63       69.15       70.00    
  23    70.00       70.37       70.69       70.95       71.16       71.32       71.44       71.51       71.55       71.56    
        71.54       71.50       71.43       71.35       71.26       71.15       71.06       70.99       70.92       70.76    
        70.54       70.27       69.98       69.69       69.41       69.21       68.97       68.75       68.57       68.41    
        68.28       68.16       68.06       67.97       67.89       67.81       67.75       67.68       67.63       67.58    
        67.55       67.52       67.52       67.54       67.60       67.71       67.92       68.28       68.91       70.00    
  24    70.00       70.45       70.81       71.11       71.35       71.53       71.66       71.76       71.82       71.84    
        71.83       71.80       71.74       71.66       71.56       71.44       71.33       71.21       71.08       70.90    
        70.74       70.47       70.13       69.76       69.48       69.36       68.98       68.69       68.47       68.30    
        68.16       68.04       67.93       67.84       67.75       67.66       67.58       67.51       67.44       67.38    
        67.33       67.29       67.27       67.27       67.31       67.42       67.64       68.04       68.76       70.00    
  25    70.00       70.57       70.98       71.30       71.56       71.75       71.90       72.01       72.08       72.12    
        72.12       72.09       72.04       71.96       71.86       71.73       71.60       71.45       71.29       71.09    
        71.05       70.73       70.33       69.93       69.73       70.11       69.20       68.78       68.53       68.35    
        68.21       68.09       67.98       67.88       67.79       67.70       67.61       67.53       67.46       67.39    
        67.33       67.29       67.26       67.25       67.29       67.40       67.64       68.07       68.82       70.00    
  26    70.00       70.47       70.86       71.18       71.44       71.65       71.81       71.93       72.00       72.05    
        72.06       72.04       71.99       71.91       71.80       71.67       71.52       71.36       71.18       70.97    
        70.69       70.29       69.82       69.37       69.02       68.87       68.47       68.16       67.94       67.76    
        67.62       67.50       67.38       67.28       67.18       67.09       67.00       66.92       66.84       66.77    
        66.71       66.66       66.63       66.63       66.67       66.79       67.04       67.53       68.41       70.00    
  27    70.00       70.42       70.78       71.09       71.35       71.56       71.73       71.85       71.94       71.99    
        72.00       71.99       71.94       71.86       71.75       71.61       71.46       71.30       71.11       70.90    
        70.59       70.19       69.73       69.27       68.86       68.59       68.31       68.07       67.87       67.71    
        67.57       67.45       67.34       67.23       67.13       67.04       66.96       66.87       66.80       66.73    
        66.68       66.63       66.61       66.61       66.66       66.79       67.05       67.54       68.43       70.00    
  28    70.00       70.39       70.73       71.03       71.28       71.49       71.66       71.79       71.88       71.93    
        71.95       71.94       71.89       71.82       71.71       71.56       71.41       71.24       71.06       70.86    
        70.55       70.21       69.82       69.40       69.00       68.72       68.47       68.27       68.09       67.93    
        67.80       67.67       67.56       67.46       67.37       67.28       67.20       67.12       67.06       67.00    
        66.96       66.93       66.92       66.94       67.00       67.14       67.41       67.87       68.66       70.00    
  29    70.00       70.36       70.69       70.98       71.23       71.43       71.60       71.73       71.82       71.88    
        71.91       71.90       71.85       71.78       71.67       71.52       71.37       71.21       71.03       70.85    
        70.56       70.25       69.92       69.58       69.26       68.99       68.76       68.56       68.38       68.23    
        68.09       67.97       67.86       67.76       67.67       67.59       67.52       67.46       67.41       67.37    
        67.35       67.34       67.36       67.41       67.50       67.67       67.95       68.38       69.04       70.00    
  30    70.00       70.35       70.66       70.94       71.19       71.39       71.56       71.68       71.78       71.84    
        71.86       71.86       71.82       71.74       71.64       71.49       71.34       71.19       71.02       70.84    
        70.58       70.30       70.02       69.73       69.46       69.22       69.00       68.81       68.64       68.49    
        68.35       68.24       68.13       68.03       67.95       67.88       67.81       67.76       67.73       67.70    
        67.70       67.71       67.75       67.83       67.95       68.13       68.39       68.76       69.29       70.00    
  31    70.00       70.34       70.64       70.92       71.15       71.35       71.52       71.65       71.74       71.80    
        71.83       71.82       71.78       71.71       71.61       71.47       71.32       71.17       71.01       70.85    
        70.61       70.36       70.11       69.86       69.62       69.40       69.20       69.02       68.86       68.72    
        68.59       68.47       68.37       68.28       68.20       68.14       68.08       68.04       68.01       68.00    
        68.01       68.03       68.09       68.18       68.31       68.49       68.74       69.06       69.48       70.00    
  32    70.00       70.33       70.63       70.89       71.12       71.32       71.48       71.61       71.71       71.77    
        71.80       71.79       71.76       71.69       71.59       71.45       71.31       71.16       71.01       70.86    
        70.64       70.42       70.19       69.97       69.76       69.56       69.38       69.21       69.06       68.92    
        68.80       68.69       68.59       68.51       68.43       68.37       68.32       68.29       68.27       68.26    
        68.28       68.32       68.38       68.47       68.60       68.78       69.00       69.28       69.62       70.00    
  33    70.00       70.32       70.62       70.88       71.10       71.30       71.46       71.59       71.68       71.74    
        71.77       71.77       71.74       71.67       71.57       71.44       71.30       71.16       71.02       70.87    
        70.67       70.47       70.27       70.07       69.88       69.70       69.53       69.37       69.23       69.10    
        68.98       68.88       68.79       68.71       68.64       68.58       68.54       68.51       68.50       68.50    
        68.52       68.56       68.62       68.72       68.84       69.00       69.20       69.43       69.71       70.00    
  34    70.00       70.32       70.61       70.86       71.08       71.28       71.44       71.56       71.66       71.72    
        71.75       71.75       71.72       71.65       71.56       71.43       71.30       71.16       71.03       70.89    
        70.70       70.52       70.34       70.16       69.98       69.82       69.66       69.52       69.38       69.26    
        69.15       69.05       68.96       68.89       68.82       68.77       68.73       68.71       68.70       68.70    
        68.73       68.77       68.83       68.92       69.03       69.18       69.35       69.55       69.77       70.00    
  35    70.00       70.31       70.60       70.85       71.07       71.26       71.42       71.54       71.64       71.70    
        71.74       71.74       71.71       71.64       71.55       71.43       71.30       71.17       71.04       70.90    
        70.73       70.57       70.40       70.23       70.07       69.92       69.78       69.64       69.52       69.40    
        69.30       69.20       69.12       69.05       68.99       68.94       68.91       68.89       68.88       68.88    
        68.91       68.95       69.01       69.09       69.19       69.32       69.46       69.63       69.81       70.00    
  36    70.00       70.31       70.59       70.84       71.06       71.25       71.40       71.53       71.62       71.69    
        71.72       71.72       71.69       71.64       71.55       71.43       71.30       71.18       71.05       70.92    
        70.77       70.61       70.45       70.30       70.15       70.01       69.88       69.75       69.64       69.53    
        69.43       69.34       69.26       69.20       69.14       69.10       69.06       69.04       69.04       69.04    
        69.06       69.10       69.16       69.23       69.32       69.43       69.55       69.69       69.84       70.00    
  37    70.00       70.31       70.59       70.83       71.05       71.24       71.39       71.52       71.61       71.68    
        71.71       71.71       71.69       71.63       71.54       71.43       71.31       71.19       71.06       70.94    
        70.80       70.65       70.50       70.36       70.23       70.09       69.97       69.85       69.74       69.64    
        69.55       69.46       69.39       69.33       69.27       69.23       69.20       69.18       69.18       69.18    
        69.20       69.24       69.28       69.35       69.43       69.52       69.63       69.74       69.87       70.00    
  38    70.00       70.31       70.58       70.83       71.04       71.23       71.38       71.51       71.60       71.67    
        71.70       71.71       71.68       71.63       71.54       71.43       71.31       71.20       71.08       70.96    
        70.82       70.69       70.55       70.42       70.29       70.17       70.05       69.94       69.83       69.74    
        69.65       69.57       69.50       69.44       69.39       69.35       69.32       69.30       69.30       69.30    
        69.32       69.35       69.39       69.45       69.52       69.60       69.69       69.79       69.89       70.00    
  39    70.00       70.30       70.58       70.82       71.04       71.22       71.38       71.50       71.60       71.66    
        71.70       71.70       71.68       71.63       71.54       71.43       71.32       71.21       71.09       70.98    
        70.85       70.72       70.59       70.47       70.35       70.23       70.12       70.02       69.92       69.83    
        69.74       69.67       69.60       69.55       69.50       69.46       69.43       69.41       69.40       69.41    
        69.42       69.45       69.48       69.53       69.59       69.66       69.74       69.82       69.91       70.00    
  40    70.00       70.30       70.58       70.82       71.03       71.22       71.37       71.49       71.59       71.66    
        71.69       71.70       71.68       71.63       71.54       71.44       71.33       71.22       71.11       71.00    
        70.87       70.75       70.63       70.51       70.40       70.29       70.18       70.08       69.99       69.90    
        69.83       69.75       69.69       69.64       69.59       69.55       69.52       69.51       69.50       69.50    
        69.51       69.53       69.56       69.60       69.65       69.71       69.78       69.85       69.92       70.00    
  41    70.00       70.30       70.57       70.82       71.03       71.21       71.37       71.49       71.59       71.65    
        71.69       71.70       71.68       71.63       71.55       71.44       71.33       71.23       71.12       71.01    
        70.89       70.78       70.66       70.55       70.44       70.34       70.24       70.14       70.05       69.97    
        69.90       69.83       69.77       69.71       69.67       69.63       69.61       69.59       69.58       69.58    
        69.59       69.60       69.63       69.66       69.71       69.76       69.81       69.87       69.93       70.00    
  42    70.00       70.30       70.57       70.81       71.03       71.21       71.36       71.49       71.58       71.65    
        71.69       71.70       71.68       71.63       71.55       71.45       71.34       71.24       71.13       71.03    
        70.91       70.80       70.69       70.59       70.48       70.38       70.29       70.20       70.11       70.03    
        69.96       69.89       69.83       69.78       69.74       69.70       69.68       69.66       69.65       69.64    
        69.65       69.66       69.69       69.71       69.75       69.79       69.84       69.89       69.94       70.00    
  43    70.00       70.30       70.57       70.81       71.02       71.21       71.36       71.48       71.58       71.65    
        71.68       71.69       71.68       71.63       71.55       71.45       71.35       71.24       71.14       71.04    
        70.93       70.82       70.72       70.62       70.52       70.42       70.33       70.24       70.16       70.08    
        70.01       69.95       69.89       69.84       69.80       69.77       69.74       69.72       69.71       69.70    
        69.70       69.72       69.73       69.76       69.79       69.82       69.86       69.91       69.95       70.00    
  44    70.00       70.30       70.57       70.81       71.02       71.20       71.36       71.48       71.58       71.65    
        71.68       71.69       71.68       71.63       71.56       71.46       71.35       71.25       71.15       71.05    
        70.95       70.84       70.74       70.64       70.54       70.45       70.36       70.28       70.20       70.13    
        70.06       70.00       69.94       69.89       69.85       69.82       69.79       69.77       69.76       69.75    
        69.75       69.76       69.77       69.79       69.82       69.85       69.88       69.92       69.96       70.00    
  45    70.00       70.30       70.57       70.81       71.02       71.20       71.36       71.48       71.58       71.64    
        71.68       71.69       71.68       71.63       71.56       71.46       71.36       71.26       71.16       71.06    
        70.96       70.86       70.76       70.66       70.57       70.48       70.39       70.31       70.23       70.16    
        70.10       70.04       69.98       69.94       69.89       69.86       69.83       69.81       69.80       69.79    
        69.79       69.79       69.81       69.82       69.84       69.87       69.90       69.93       69.97       70.00    
  46    70.00       70.30       70.57       70.81       71.02       71.20       71.36       71.48       71.58       71.64    
        71.68       71.70       71.68       71.63       71.56       71.46       71.36       71.27       71.17       71.07    
        70.97       70.87       70.78       70.68       70.59       70.50       70.42       70.34       70.26       70.19    
        70.13       70.07       70.02       69.97       69.93       69.90       69.87       69.85       69.83       69.82    
        69.82       69.82       69.83       69.85       69.86       69.89       69.91       69.94       69.97       70.00    
  47    70.00       70.30       70.57       70.81       71.02       71.20       71.35       71.48       71.58       71.64    
        71.68       71.70       71.68       71.64       71.57       71.47       71.37       71.27       71.18       71.08    
        70.98       70.88       70.79       70.70       70.61       70.52       70.44       70.36       70.29       70.22    
        70.15       70.10       70.04       70.00       69.96       69.92       69.89       69.87       69.86       69.85    
        69.84       69.85       69.85       69.86       69.88       69.90       69.92       69.95       69.97       70.00    
  48    70.00       70.30       70.57       70.81       71.02       71.20       71.35       71.48       71.58       71.64    
        71.68       71.70       71.68       71.64       71.57       71.47       71.37       71.28       71.18       71.09    
        70.99       70.89       70.80       70.71       70.62       70.53       70.45       70.37       70.30       70.23    
        70.17       70.11       70.06       70.02       69.98       69.94       69.91       69.89       69.88       69.87    
        69.86       69.86       69.87       69.88       69.89       69.91       69.93       69.95       69.98       70.00    
  49    70.00       70.30       70.57       70.81       71.02       71.20       71.35       71.48       71.58       71.64    
        71.68       71.70       71.68       71.64       71.57       71.47       71.37       71.28       71.18       71.09    
        70.99       70.90       70.80       70.71       70.63       70.54       70.46       70.39       70.31       70.25    
        70.18       70.13       70.08       70.03       69.99       69.96       69.93       69.91       69.89       69.88    
        69.87       69.87       69.88       69.89       69.90       69.91       69.93       69.95       69.98       70.00    
  50    70.00       70.30       70.57       70.81       71.02       71.20       71.35       71.48       71.58       71.64    
        71.68       71.70       71.68       71.64       71.57       71.47       71.37       71.28       71.18       71.09    
        70.99       70.90       70.81       70.72       70.63       70.55       70.47       70.39       70.32       70.25    
        70.19       70.13       70.08       70.04       70.00       69.96       69.93       69.91       69.90       69.88    
        69.88       69.88       69.88       69.89       69.90       69.92       69.94       69.96       69.98       70.00    
1
              HEAD IN LAYER   2 AT END OF TIME STEP   1 IN STRESS PERIOD    1
  ---------------------------------------------------------------------------

            1           2           3           4           5           6           7           8           9          10
           11          12          13          14          15          16          17          18          19          20
           21          22          23          24          25          26          27          28          29          30
           31          32          33          34          35          36          37          38          39          40
           41          42          43          44          45          46          47          48          49          50
 ........................................................................................................................
   1    70.00       70.07       70.12       70.13       70.13       70.10       70.04       69.97       69.88       69.78    
        69.66       69.53       69.40       69.27       69.13       68.99       68.87       68.78       68.71       68.67    
        68.64       68.62       68.62       68.62       68.63       68.65       68.67       68.70       68.73       68.76    
        68.79       68.83       68.87       68.91       68.96       69.01       69.06       69.11       69.17       69.23    
        69.30       69.36       69.44       69.51       69.59       69.67       69.75       69.83       69.92       70.00    
   2    70.00       70.07       70.11       70.13       70.12       70.09       70.03       69.96       69.87       69.76    
        69.64       69.51       69.38       69.24       69.10       68.96       68.85       68.76       68.69       68.65    
        68.62       68.61       68.61       68.61       68.63       68.64       68.67       68.69       68.72       68.76    
        68.79       68.83       68.87       68.91       68.95       69.00       69.05       69.11       69.17       69.23    
        69.29       69.36       69.43       69.51       69.59       69.67       69.75       69.83       69.92       70.00    
   3    70.00       70.07       70.11       70.12       70.11       70.07       70.02       69.94       69.84       69.73    
        69.60       69.47       69.33       69.19       69.05       68.91       68.80       68.71       68.65       68.62    
        68.59       68.59       68.59       68.60       68.61       68.64       68.66       68.69       68.72       68.75    
        68.79       68.82       68.86       68.90       68.95       69.00       69.05       69.10       69.16       69.22    
        69.29       69.36       69.43       69.50       69.58       69.66       69.74       69.83       69.91       70.00    
   4    70.00       70.07       70.10       70.11       70.10       70.06       69.99       69.90       69.80       69.67    
        69.54       69.40       69.25       69.10       68.96       68.82       68.72       68.64       68.59       68.56    
        68.55       68.55       68.56       68.58       68.60       68.62       68.65       68.68       68.71       68.74    
        68.78       68.81       68.85       68.89       68.94       68.99       69.04       69.09       69.15       69.21    
        69.28       69.35       69.42       69.49       69.57       69.66       69.74       69.83       69.91       70.00    
   5    70.00       70.06       70.10       70.10       70.08       70.03       69.96       69.86       69.74       69.61    
        69.46       69.30       69.14       68.99       68.84       68.71       68.61       68.55       68.51       68.50    
        68.50       68.51       68.53       68.55       68.58       68.61       68.64       68.67       68.70       68.74    
        68.77       68.81       68.84       68.88       68.93       68.97       69.02       69.08       69.13       69.20    
        69.26       69.33       69.41       69.48       69.56       69.65       69.73       69.82       69.91       70.00    
   6    70.00       70.06       70.09       70.09       70.06       70.00       69.92       69.81       69.68       69.52    
        69.35       69.18       69.00       68.83       68.68       68.55       68.47       68.42       68.41       68.41    
        68.43       68.46       68.49       68.52       68.56       68.59       68.63       68.66       68.69       68.73    
        68.76       68.79       68.83       68.87       68.91       68.96       69.00       69.06       69.12       69.18    
        69.24       69.31       69.39       69.47       69.55       69.64       69.73       69.82       69.91       70.00    
   7    70.00       70.05       70.08       70.08       70.04       69.98       69.88       69.76       69.60       69.43    
        69.23       69.02       68.82       68.63       68.48       68.35       68.29       68.27       68.28       68.32    
        68.36       68.40       68.45       68.49       68.54       68.58       68.61       68.65       68.68       68.71    
        68.75       68.78       68.82       68.85       68.89       68.94       68.98       69.04       69.09       69.15    
        69.22       69.29       69.37       69.45       69.54       69.62       69.72       69.81       69.90       70.00    
   8    70.00       70.05       70.07       70.06       70.02       69.95       69.84       69.70       69.52       69.32    
        69.09       68.84       68.59       68.37       68.20       68.09       68.06       68.09       68.14       68.21    
        68.28       68.35       68.41       68.47       68.52       68.56       68.60       68.64       68.67       68.70    
        68.73       68.77       68.80       68.83       68.87       68.91       68.96       69.01       69.06       69.13    
        69.19       69.27       69.34       69.43       69.52       69.61       69.70       69.80       69.90       70.00    
   9    70.00       70.05       70.07       70.06       70.01       69.93       69.81       69.65       69.45       69.20    
        68.93       68.62       68.31       68.03       67.83       67.75       67.78       67.87       67.98       68.10    
        68.20       68.30       68.38       68.45       68.51       68.56       68.60       68.63       68.66       68.69    
        68.72       68.75       68.78       68.81       68.84       68.88       68.93       68.97       69.03       69.09    
        69.16       69.23       69.31       69.40       69.49       69.59       69.69       69.79       69.89       70.00    
  10    70.00       70.05       70.07       70.05       70.00       69.92       69.78       69.61       69.38       69.10    
        68.76       68.38       67.97       67.58       67.32       67.30       67.43       67.63       67.82       67.99    
        68.14       68.26       68.36       68.44       68.50       68.55       68.60       68.63       68.66       68.68    
        68.71       68.73       68.76       68.78       68.81       68.85       68.89       68.94       68.99       69.05    
        69.12       69.20       69.28       69.37       69.46       69.57       69.67       69.78       69.89       70.00    
  11    70.00       70.05       70.07       70.06       70.01       69.92       69.78       69.59       69.33       69.02    
        68.62       68.13       67.56       66.96       66.52       66.68       67.03       67.38       67.68       67.92    
        68.10       68.25       68.36       68.44       68.51       68.56       68.60       68.63       68.66       68.68    
        68.70       68.71       68.73       68.75       68.78       68.81       68.85       68.89       68.94       69.00    
        69.07       69.15       69.24       69.33       69.43       69.54       69.65       69.76       69.88       70.00    
  12    70.00       70.06       70.08       70.08       70.03       69.93       69.79       69.59       69.33       68.98    
        68.53       67.94       67.16       66.14       65.07       65.86       66.63       67.19       67.60       67.89    
        68.10       68.26       68.38       68.47       68.54       68.58       68.62       68.64       68.66       68.67    
        68.69       68.70       68.71       68.72       68.74       68.77       68.80       68.84       68.89       68.95    
        69.02       69.10       69.19       69.29       69.39       69.51       69.62       69.75       69.87       70.00    
  13    70.00       70.07       70.10       70.10       70.06       69.97       69.84       69.64       69.37       69.02    
        68.55       67.90       66.94       65.31       61.62       65.02       66.42       67.16       67.62       67.94    
        68.16       68.32       68.44       68.52       68.58       68.62       68.64       68.66       68.67       68.67    
        68.67       68.68       68.68       68.69       68.70       68.72       68.74       68.78       68.83       68.89    
        68.96       69.04       69.13       69.24       69.35       69.47       69.60       69.73       69.86       70.00    
  14    70.00       70.08       70.13       70.14       70.11       70.03       69.91       69.73       69.48       69.14    
        68.70       68.13       67.35       66.35       65.29       66.07       66.84       67.40       67.80       68.08    
        68.28       68.42       68.52       68.59       68.64       68.66       68.68       68.68       68.68       68.67    
        68.66       68.66       68.65       68.65       68.65       68.66       68.68       68.71       68.75       68.81    
        68.88       68.97       69.07       69.18       69.30       69.43       69.56       69.71       69.85       70.00    
  15    70.00       70.10       70.16       70.19       70.17       70.12       70.01       69.85       69.63       69.34    
        68.97       68.51       67.96       67.37       66.94       67.10       67.46       67.80       68.08       68.30    
        68.46       68.57       68.64       68.69       68.71       68.72       68.72       68.71       68.70       68.68    
        68.66       68.63       68.62       68.60       68.59       68.59       68.60       68.63       68.67       68.72    
        68.80       68.89       68.99       69.11       69.24       69.38       69.52       69.68       69.84       70.00    
  16    70.00       70.12       70.20       70.25       70.25       70.22       70.14       70.01       69.83       69.59    
        69.29       68.94       68.55       68.19       67.95       67.93       68.07       68.26       68.43       68.58    
        68.68       68.75       68.79       68.81       68.81       68.80       68.78       68.75       68.72       68.68    
        68.65       68.61       68.58       68.55       68.53       68.52       68.52       68.54       68.57       68.63    
        68.70       68.80       68.91       69.03       69.17       69.32       69.48       69.65       69.82       70.00    
  17    70.00       70.14       70.24       70.32       70.35       70.34       70.29       70.19       70.05       69.86    
        69.63       69.37       69.10       68.85       68.67       68.61       68.64       68.72       68.81       68.89    
        68.93       68.96       68.96       68.94       68.91       68.88       68.84       68.79       68.74       68.69    
        68.64       68.59       68.54       68.50       68.46       68.44       68.43       68.43       68.46       68.52    
        68.59       68.69       68.81       68.95       69.10       69.26       69.43       69.61       69.81       70.00    
  18    70.00       70.17       70.30       70.40       70.46       70.48       70.45       70.39       70.29       70.15    
        69.98       69.78       69.58       69.40       69.26       69.17       69.15       69.18       69.21       69.23    
        69.21       69.18       69.14       69.09       69.03       68.97       68.90       68.83       68.77       68.70    
        68.63       68.57       68.50       68.45       68.39       68.35       68.32       68.32       68.34       68.39    
        68.47       68.58       68.71       68.85       69.01       69.19       69.37       69.57       69.78       70.00    
  19    70.00       70.20       70.36       70.48       70.57       70.62       70.63       70.60       70.54       70.44    
        70.31       70.17       70.02       69.88       69.75       69.66       69.62       69.62       69.62       69.59    
        69.51       69.42       69.33       69.24       69.15       69.06       68.97       68.88       68.79       68.71    
        68.62       68.54       68.47       68.39       68.32       68.26       68.21       68.19       68.20       68.25    
        68.34       68.46       68.60       68.75       68.92       69.11       69.31       69.53       69.76       70.00    
  20    70.00       70.23       70.42       70.58       70.70       70.78       70.82       70.82       70.79       70.73    
        70.64       70.53       70.41       70.30       70.19       70.10       70.05       70.04       70.05       69.98    
        69.82       69.67       69.52       69.39       69.26       69.14       69.03       68.92       68.82       68.72    
        68.62       68.52       68.43       68.34       68.25       68.17       68.10       68.06       68.06       68.11    
        68.21       68.34       68.48       68.65       68.82       69.02       69.24       69.48       69.73       70.00    
  21    70.00       70.27       70.50       70.69       70.84       70.95       71.02       71.05       71.04       71.01    
        70.95       70.87       70.78       70.68       70.58       70.49       70.45       70.46       70.56       70.46    
        70.13       69.90       69.70       69.53       69.37       69.23       69.09       68.96       68.84       68.73    
        68.61       68.50       68.40       68.30       68.19       68.10       68.01       67.94       67.91       67.97    
        68.09       68.22       68.37       68.54       68.73       68.93       69.16       69.42       69.70       70.00    
  22    70.00       70.31       70.58       70.81       70.99       71.13       71.22       71.28       71.30       71.29    
        71.25       71.19       71.11       71.03       70.93       70.84       70.78       70.77       70.85       70.72    
        70.36       70.08       69.85       69.65       69.47       69.31       69.15       69.00       68.86       68.73    
        68.61       68.49       68.38       68.26       68.15       68.04       67.94       67.84       67.79       67.87    
        67.99       68.13       68.28       68.45       68.63       68.84       69.08       69.35       69.66       70.00    
  23    70.00       70.37       70.69       70.95       71.16       71.32       71.44       71.51       71.55       71.56    
        71.54       71.50       71.43       71.35       71.26       71.15       71.06       70.99       70.92       70.76    
        70.49       70.22       69.98       69.76       69.56       69.37       69.20       69.03       68.88       68.74    
        68.61       68.48       68.36       68.24       68.13       68.02       67.91       67.83       67.79       67.84    
        67.94       68.07       68.21       68.37       68.55       68.76       69.01       69.30       69.63       70.00    
  24    70.00       70.45       70.81       71.11       71.35       71.53       71.66       71.76       71.82       71.84    
        71.83       71.80       71.74       71.66       71.56       71.44       71.33       71.21       71.08       70.90    
        70.61       70.33       70.07       69.84       69.62       69.43       69.24       69.06       68.90       68.75    
        68.61       68.48       68.36       68.24       68.12       68.02       67.93       67.86       67.83       67.86    
        67.93       68.04       68.17       68.32       68.49       68.70       68.95       69.25       69.60       70.00    
  25    70.00       70.57       70.98       71.30       71.56       71.75       71.90       72.01       72.08       72.12    
        72.12       72.09       72.04       71.96       71.86       71.73       71.60       71.45       71.29       71.09    
        70.70       70.40       70.13       69.89       69.67       69.48       69.27       69.08       68.91       68.76    
        68.62       68.49       68.37       68.25       68.14       68.04       67.96       67.90       67.88       67.90    
        67.95       68.04       68.15       68.29       68.46       68.67       68.92       69.23       69.59       70.00    
  26    70.00       70.47       70.86       71.18       71.44       71.65       71.81       71.93       72.00       72.05    
        72.06       72.04       71.99       71.91       71.80       71.67       71.52       71.36       71.18       70.97    
        70.69       70.41       70.15       69.90       69.68       69.47       69.27       69.09       68.92       68.76    
        68.62       68.49       68.37       68.26       68.16       68.07       68.00       67.95       67.93       67.94    
        67.98       68.05       68.15       68.28       68.44       68.64       68.89       69.20       69.58       70.00    
  27    70.00       70.42       70.78       71.09       71.35       71.56       71.73       71.85       71.94       71.99    
        72.00       71.99       71.94       71.86       71.75       71.61       71.46       71.30       71.11       70.90    
        70.66       70.41       70.16       69.92       69.70       69.49       69.29       69.11       68.95       68.80    
        68.66       68.54       68.42       68.32       68.22       68.14       68.08       68.03       68.01       68.02    
        68.05       68.12       68.21       68.33       68.48       68.68       68.92       69.22       69.58       70.00    
  28    70.00       70.39       70.73       71.03       71.28       71.49       71.66       71.79       71.88       71.93    
        71.95       71.94       71.89       71.82       71.71       71.56       71.41       71.24       71.06       70.86    
        70.65       70.42       70.18       69.95       69.74       69.54       69.35       69.18       69.02       68.88    
        68.74       68.62       68.51       68.41       68.33       68.25       68.19       68.15       68.14       68.14    
        68.17       68.23       68.31       68.43       68.57       68.76       68.99       69.27       69.61       70.00    
  29    70.00       70.36       70.69       70.98       71.23       71.43       71.60       71.73       71.82       71.88    
        71.91       71.90       71.85       71.78       71.67       71.52       71.37       71.21       71.03       70.85    
        70.64       70.43       70.22       70.00       69.80       69.61       69.43       69.27       69.12       68.98    
        68.85       68.73       68.63       68.54       68.46       68.39       68.34       68.30       68.29       68.29    
        68.32       68.38       68.46       68.56       68.70       68.88       69.09       69.35       69.66       70.00    
  30    70.00       70.35       70.66       70.94       71.19       71.39       71.56       71.68       71.78       71.84    
        71.86       71.86       71.82       71.74       71.64       71.49       71.34       71.19       71.02       70.84    
        70.65       70.45       70.26       70.06       69.87       69.69       69.52       69.37       69.22       69.09    
        68.97       68.86       68.76       68.67       68.60       68.54       68.49       68.46       68.45       68.46    
        68.49       68.54       68.61       68.71       68.84       69.00       69.20       69.44       69.71       70.00    
  31    70.00       70.34       70.64       70.92       71.15       71.35       71.52       71.65       71.74       71.80    
        71.83       71.82       71.78       71.71       71.61       71.47       71.32       71.17       71.01       70.85    
        70.67       70.48       70.30       70.12       69.94       69.78       69.62       69.47       69.33       69.21    
        69.09       68.99       68.90       68.81       68.75       68.69       68.65       68.62       68.61       68.62    
        68.65       68.70       68.77       68.86       68.98       69.13       69.31       69.52       69.75       70.00    
  32    70.00       70.33       70.63       70.89       71.12       71.32       71.48       71.61       71.71       71.77    
        71.80       71.79       71.76       71.69       71.59       71.45       71.31       71.16       71.01       70.86    
        70.69       70.52       70.35       70.18       70.02       69.86       69.71       69.57       69.44       69.32    
        69.22       69.12       69.03       68.95       68.89       68.84       68.80       68.77       68.77       68.78    
        68.80       68.85       68.92       69.00       69.11       69.25       69.41       69.59       69.79       70.00    
  33    70.00       70.32       70.62       70.88       71.10       71.30       71.46       71.59       71.68       71.74    
        71.77       71.77       71.74       71.67       71.57       71.44       71.30       71.16       71.02       70.87    
        70.71       70.55       70.39       70.24       70.09       69.94       69.80       69.67       69.55       69.44    
        69.33       69.24       69.16       69.09       69.03       68.98       68.94       68.92       68.91       68.92    
        68.95       68.99       69.05       69.13       69.23       69.35       69.49       69.65       69.82       70.00    
  34    70.00       70.32       70.61       70.86       71.08       71.28       71.44       71.56       71.66       71.72    
        71.75       71.75       71.72       71.65       71.56       71.43       71.30       71.16       71.03       70.89    
        70.74       70.59       70.44       70.29       70.15       70.02       69.88       69.76       69.65       69.54    
        69.44       69.36       69.28       69.21       69.15       69.11       69.08       69.06       69.05       69.06    
        69.08       69.12       69.18       69.25       69.34       69.44       69.57       69.70       69.85       70.00    
  35    70.00       70.31       70.60       70.85       71.07       71.26       71.42       71.54       71.64       71.70    
        71.74       71.74       71.71       71.64       71.55       71.43       71.30       71.17       71.04       70.90    
        70.76       70.62       70.48       70.35       70.21       70.09       69.96       69.85       69.74       69.64    
        69.55       69.46       69.39       69.33       69.27       69.23       69.20       69.18       69.18       69.18    
        69.20       69.24       69.29       69.35       69.43       69.52       69.63       69.75       69.87       70.00    
  36    70.00       70.31       70.59       70.84       71.06       71.25       71.40       71.53       71.62       71.69    
        71.72       71.72       71.69       71.64       71.55       71.43       71.30       71.18       71.05       70.92    
        70.79       70.66       70.53       70.40       70.27       70.15       70.03       69.93       69.82       69.73    
        69.64       69.56       69.49       69.43       69.38       69.34       69.31       69.29       69.29       69.29    
        69.31       69.34       69.39       69.44       69.51       69.59       69.68       69.78       69.89       70.00    
  37    70.00       70.31       70.59       70.83       71.05       71.24       71.39       71.52       71.61       71.68    
        71.71       71.71       71.69       71.63       71.54       71.43       71.31       71.19       71.06       70.94    
        70.81       70.69       70.56       70.44       70.32       70.21       70.10       70.00       69.90       69.81    
        69.73       69.65       69.59       69.53       69.48       69.44       69.41       69.40       69.39       69.39    
        69.41       69.43       69.47       69.52       69.58       69.65       69.73       69.82       69.91       70.00    
  38    70.00       70.31       70.58       70.83       71.04       71.23       71.38       71.51       71.60       71.67    
        71.70       71.71       71.68       71.63       71.54       71.43       71.31       71.20       71.08       70.96    
        70.84       70.72       70.60       70.48       70.37       70.26       70.16       70.06       69.97       69.88    
        69.81       69.73       69.67       69.62       69.57       69.53       69.51       69.49       69.48       69.48    
        69.49       69.52       69.55       69.59       69.64       69.70       69.77       69.84       69.92       70.00    
  39    70.00       70.30       70.58       70.82       71.04       71.22       71.38       71.50       71.60       71.66    
        71.70       71.70       71.68       71.63       71.54       71.43       71.32       71.21       71.09       70.98    
        70.86       70.75       70.63       70.52       70.42       70.31       70.21       70.12       70.03       69.95    
        69.88       69.81       69.75       69.69       69.65       69.61       69.59       69.57       69.56       69.56    
        69.57       69.59       69.61       69.65       69.70       69.75       69.80       69.87       69.93       70.00    
  40    70.00       70.30       70.58       70.82       71.03       71.22       71.37       71.49       71.59       71.66    
        71.69       71.70       71.68       71.63       71.54       71.44       71.33       71.22       71.11       71.00    
        70.88       70.77       70.67       70.56       70.46       70.36       70.26       70.17       70.09       70.01    
        69.94       69.87       69.82       69.76       69.72       69.69       69.66       69.64       69.63       69.63    
        69.63       69.65       69.67       69.70       69.74       69.78       69.83       69.89       69.94       70.00    
  41    70.00       70.30       70.57       70.82       71.03       71.21       71.37       71.49       71.59       71.65    
        71.69       71.70       71.68       71.63       71.55       71.44       71.33       71.23       71.12       71.01    
        70.90       70.80       70.69       70.59       70.49       70.40       70.31       70.22       70.14       70.07    
        70.00       69.93       69.88       69.83       69.78       69.75       69.72       69.70       69.69       69.69    
        69.69       69.70       69.72       69.75       69.78       69.82       69.86       69.90       69.95       70.00    
  42    70.00       70.30       70.57       70.81       71.03       71.21       71.36       71.49       71.58       71.65    
        71.69       71.70       71.68       71.63       71.55       71.45       71.34       71.24       71.13       71.03    
        70.92       70.82       70.72       70.62       70.53       70.43       70.35       70.26       70.19       70.11    
        70.05       69.98       69.93       69.88       69.84       69.81       69.78       69.76       69.75       69.74    
        69.74       69.75       69.76       69.79       69.81       69.84       69.88       69.92       69.96       70.00    
  43    70.00       70.30       70.57       70.81       71.02       71.21       71.36       71.48       71.58       71.65    
        71.68       71.69       71.68       71.63       71.55       71.45       71.35       71.24       71.14       71.04    
        70.94       70.84       70.74       70.65       70.55       70.47       70.38       70.30       70.22       70.15    
        70.09       70.03       69.98       69.93       69.89       69.85       69.83       69.81       69.79       69.79    
        69.78       69.79       69.80       69.82       69.84       69.87       69.90       69.93       69.96       70.00    
  44    70.00       70.30       70.57       70.81       71.02       71.20       71.36       71.48       71.58       71.65    
        71.68       71.69       71.68       71.63       71.56       71.46       71.35       71.25       71.15       71.05    
        70.95       70.86       70.76       70.67       70.58       70.49       70.41       70.33       70.26       70.19    
        70.13       70.07       70.02       69.97       69.93       69.90       69.87       69.85       69.83       69.82    
        69.82       69.82       69.83       69.85       69.86       69.89       69.91       69.94       69.97       70.00    
  45    70.00       70.30       70.57       70.81       71.02       71.20       71.36       71.48       71.58       71.64    
        71.68       71.69       71.68       71.63       71.56       71.46       71.36       71.26       71.16       71.06    
        70.97       70.87       70.78       70.69       70.60       70.52       70.43       70.36       70.29       70.22    
        70.16       70.10       70.05       70.00       69.96       69.93       69.90       69.88       69.86       69.85    
        69.85       69.85       69.86       69.87       69.88       69.90       69.92       69.95       69.97       70.00    
  46    70.00       70.30       70.57       70.81       71.02       71.20       71.36       71.48       71.58       71.64    
        71.68       71.70       71.68       71.63       71.56       71.46       71.36       71.27       71.17       71.07    
        70.98       70.88       70.79       70.70       70.62       70.53       70.46       70.38       70.31       70.24    
        70.18       70.13       70.08       70.03       69.99       69.96       69.93       69.91       69.89       69.88    
        69.87       69.87       69.88       69.89       69.90       69.92       69.93       69.95       69.98       70.00    
  47    70.00       70.30       70.57       70.81       71.02       71.20       71.35       71.48       71.58       71.64    
        71.68       71.70       71.68       71.64       71.57       71.47       71.37       71.27       71.18       71.08    
        70.99       70.89       70.80       70.72       70.63       70.55       70.47       70.40       70.33       70.26    
        70.20       70.15       70.10       70.05       70.01       69.98       69.95       69.93       69.91       69.90    
        69.89       69.89       69.89       69.90       69.91       69.93       69.94       69.96       69.98       70.00    
  48    70.00       70.30       70.57       70.81       71.02       71.20       71.35       71.48       71.58       71.64    
        71.68       71.70       71.68       71.64       71.57       71.47       71.37       71.28       71.18       71.09    
        70.99       70.90       70.81       70.72       70.64       70.56       70.48       70.41       70.34       70.28    
        70.22       70.16       70.11       70.07       70.03       70.00       69.97       69.95       69.93       69.92    
        69.91       69.91       69.91       69.91       69.92       69.93       69.95       69.96       69.98       70.00    
  49    70.00       70.30       70.57       70.81       71.02       71.20       71.35       71.48       71.58       71.64    
        71.68       71.70       71.68       71.64       71.57       71.47       71.37       71.28       71.18       71.09    
        71.00       70.91       70.82       70.73       70.65       70.57       70.49       70.42       70.35       70.29    
        70.23       70.17       70.12       70.08       70.04       70.01       69.98       69.96       69.94       69.93    
        69.92       69.91       69.91       69.92       69.93       69.94       69.95       69.97       69.98       70.00    
  50    70.00       70.30       70.57       70.81       71.02       71.20       71.35       71.48       71.58       71.64    
        71.68       71.70       71.68       71.64       71.57       71.47       71.37       71.28       71.18       71.09    
        71.00       70.91       70.82       70.73       70.65       70.57       70.50       70.42       70.36       70.29    
        70.23       70.18       70.13       70.09       70.05       70.01       69.98       69.96       69.94       69.93    
        69.92       69.92       69.92       69.92       69.93       69.94       69.95       69.97       69.98       70.00    
1
              HEAD IN LAYER   3 AT END OF TIME STEP   1 IN STRESS PERIOD    1
  ---------------------------------------------------------------------------

            1           2           3           4           5           6           7           8           9          10
           11          12          13          14          15          16          17          18          19          20
           21          22          23          24          25          26          27          28          29          30
[...]
        70.50       70.26       70.04       69.85       69.68       69.53       69.38       69.24       69.10       68.96    
        68.81       68.66       68.48       68.29       68.06       67.77       67.40       66.92       66.45       66.99    
        67.53       67.96       68.31       68.61       68.88       69.12       69.35       69.57       69.79       70.00    
  24    70.00       70.45       70.81       71.11       71.35       71.53       71.66       71.76       71.82       71.84    
        71.83       71.80       71.74       71.66       71.56       71.44       71.33       71.21       71.08       70.90    
        70.63       70.37       70.15       69.95       69.77       69.61       69.46       69.31       69.17       69.03    
        68.88       68.73       68.56       68.38       68.18       67.95       67.69       67.43       67.29       67.49    
        67.80       68.12       68.41       68.67       68.92       69.15       69.37       69.58       69.79       70.00    
  25    70.00       70.57       70.98       71.30       71.56       71.75       71.90       72.01       72.08       72.12    
        72.12       72.09       72.04       71.96       71.86       71.73       71.60       71.45       71.29       71.09    
        70.72       70.46       70.23       70.03       69.86       69.69       69.53       69.39       69.24       69.10    
        68.96       68.81       68.66       68.49       68.32       68.15       67.97       67.83       67.78       67.88    
        68.08       68.30       68.53       68.76       68.97       69.19       69.39       69.60       69.80       70.00    
  26    70.00       70.47       70.86       71.18       71.44       71.65       71.81       71.93       72.00       72.05    
        72.06       72.04       71.99       71.91       71.80       71.67       71.52       71.36       71.18       70.97    
        70.73       70.50       70.29       70.10       69.92       69.76       69.61       69.46       69.32       69.18    
        69.04       68.90       68.76       68.62       68.48       68.34       68.22       68.14       68.12       68.19    
        68.32       68.48       68.66       68.85       69.04       69.24       69.43       69.62       69.81       70.00    
  27    70.00       70.42       70.78       71.09       71.35       71.56       71.73       71.85       71.94       71.99    
        72.00       71.99       71.94       71.86       71.75       71.61       71.46       71.30       71.11       70.90    
        70.71       70.52       70.33       70.15       69.98       69.83       69.67       69.53       69.39       69.26    
        69.13       69.00       68.87       68.75       68.63       68.53       68.44       68.39       68.38       68.43    
        68.52       68.65       68.79       68.95       69.12       69.29       69.47       69.64       69.82       70.00    
  28    70.00       70.39       70.73       71.03       71.28       71.49       71.66       71.79       71.88       71.93    
        71.95       71.94       71.89       71.82       71.71       71.56       71.41       71.24       71.06       70.86    
        70.70       70.53       70.36       70.20       70.04       69.88       69.74       69.60       69.47       69.34    
        69.22       69.10       68.98       68.88       68.78       68.69       68.63       68.59       68.59       68.63    
        68.70       68.80       68.92       69.05       69.20       69.35       69.51       69.67       69.83       70.00    
  29    70.00       70.36       70.69       70.98       71.23       71.43       71.60       71.73       71.82       71.88    
        71.91       71.90       71.85       71.78       71.67       71.52       71.37       71.21       71.03       70.85    
        70.70       70.54       70.39       70.24       70.09       69.94       69.80       69.67       69.54       69.42    
        69.31       69.20       69.09       69.00       68.91       68.84       68.79       68.77       68.77       68.80    
        68.85       68.93       69.03       69.15       69.27       69.41       69.55       69.70       69.85       70.00    
  30    70.00       70.35       70.66       70.94       71.19       71.39       71.56       71.68       71.78       71.84    
        71.86       71.86       71.82       71.74       71.64       71.49       71.34       71.19       71.02       70.84    
        70.70       70.56       70.42       70.27       70.13       70.00       69.86       69.74       69.62       69.50    
        69.39       69.29       69.20       69.11       69.04       68.98       68.94       68.92       68.92       68.94    
        68.99       69.06       69.14       69.24       69.35       69.47       69.59       69.73       69.86       70.00    
  31    70.00       70.34       70.64       70.92       71.15       71.35       71.52       71.65       71.74       71.80    
        71.83       71.82       71.78       71.71       71.61       71.47       71.32       71.17       71.01       70.85    
        70.72       70.58       70.45       70.31       70.18       70.05       69.92       69.80       69.69       69.58    
        69.48       69.39       69.30       69.22       69.16       69.11       69.07       69.05       69.05       69.07    
        69.11       69.17       69.24       69.32       69.42       69.52       69.64       69.75       69.88       70.00    
  32    70.00       70.33       70.63       70.89       71.12       71.32       71.48       71.61       71.71       71.77    
        71.80       71.79       71.76       71.69       71.59       71.45       71.31       71.16       71.01       70.86    
        70.73       70.60       70.48       70.35       70.22       70.10       69.98       69.87       69.76       69.66    
        69.56       69.47       69.39       69.33       69.27       69.22       69.19       69.17       69.17       69.19    
        69.22       69.26       69.33       69.40       69.48       69.58       69.68       69.78       69.89       70.00    
  33    70.00       70.32       70.62       70.88       71.10       71.30       71.46       71.59       71.68       71.74    
        71.77       71.77       71.74       71.67       71.57       71.44       71.30       71.16       71.02       70.87    
        70.75       70.63       70.51       70.38       70.26       70.15       70.04       69.93       69.83       69.73    
        69.64       69.56       69.48       69.42       69.37       69.32       69.29       69.28       69.27       69.29    
        69.31       69.35       69.41       69.47       69.54       69.62       69.71       69.81       69.90       70.00    
  34    70.00       70.32       70.61       70.86       71.08       71.28       71.44       71.56       71.66       71.72    
        71.75       71.75       71.72       71.65       71.56       71.43       71.30       71.16       71.03       70.89    
        70.77       70.65       70.54       70.42       70.31       70.20       70.09       69.99       69.89       69.80    
        69.71       69.64       69.57       69.51       69.46       69.42       69.39       69.37       69.37       69.38    
        69.40       69.43       69.48       69.53       69.60       69.67       69.75       69.83       69.91       70.00    
  35    70.00       70.31       70.60       70.85       71.07       71.26       71.42       71.54       71.64       71.70    
        71.74       71.74       71.71       71.64       71.55       71.43       71.30       71.17       71.04       70.90    
        70.79       70.68       70.57       70.46       70.35       70.24       70.14       70.04       69.95       69.86    
        69.78       69.71       69.64       69.59       69.54       69.50       69.48       69.46       69.45       69.46    
        69.48       69.51       69.54       69.59       69.65       69.71       69.78       69.85       69.92       70.00    
  36    70.00       70.31       70.59       70.84       71.06       71.25       71.40       71.53       71.62       71.69    
        71.72       71.72       71.69       71.64       71.55       71.43       71.30       71.18       71.05       70.92    
        70.81       70.70       70.60       70.49       70.39       70.28       70.19       70.09       70.01       69.92    
        69.85       69.78       69.72       69.66       69.62       69.58       69.55       69.54       69.53       69.53    
        69.55       69.57       69.60       69.64       69.69       69.75       69.80       69.87       69.93       70.00    
  37    70.00       70.31       70.59       70.83       71.05       71.24       71.39       71.52       71.61       71.68    
        71.71       71.71       71.69       71.63       71.54       71.43       71.31       71.19       71.06       70.94    
        70.84       70.73       70.63       70.52       70.42       70.33       70.23       70.14       70.06       69.98    
        69.91       69.84       69.78       69.73       69.69       69.65       69.63       69.61       69.60       69.60    
        69.61       69.63       69.66       69.69       69.73       69.78       69.83       69.88       69.94       70.00    
  38    70.00       70.31       70.58       70.83       71.04       71.23       71.38       71.51       71.60       71.67    
        71.70       71.71       71.68       71.63       71.54       71.43       71.31       71.20       71.08       70.96    
        70.86       70.75       70.65       70.55       70.46       70.36       70.27       70.19       70.11       70.03    
        69.96       69.90       69.84       69.79       69.75       69.72       69.69       69.67       69.66       69.66    
        69.67       69.68       69.70       69.73       69.77       69.81       69.85       69.90       69.95       70.00    
  39    70.00       70.30       70.58       70.82       71.04       71.22       71.38       71.50       71.60       71.66    
        71.70       71.70       71.68       71.63       71.54       71.43       71.32       71.21       71.09       70.98    
        70.88       70.78       70.68       70.58       70.49       70.40       70.31       70.23       70.15       70.08    
        70.01       69.95       69.90       69.85       69.81       69.77       69.75       69.73       69.72       69.71    
        69.72       69.73       69.75       69.77       69.80       69.83       69.87       69.91       69.96       70.00    
  40    70.00       70.30       70.58       70.82       71.03       71.22       71.37       71.49       71.59       71.66    
        71.69       71.70       71.68       71.63       71.54       71.44       71.33       71.22       71.11       71.00    
        70.90       70.80       70.70       70.61       70.52       70.43       70.35       70.27       70.19       70.12    
        70.06       70.00       69.95       69.90       69.86       69.82       69.80       69.78       69.77       69.76    
        69.76       69.77       69.78       69.80       69.83       69.86       69.89       69.93       69.96       70.00    
  41    70.00       70.30       70.57       70.82       71.03       71.21       71.37       71.49       71.59       71.65    
        71.69       71.70       71.68       71.63       71.55       71.44       71.33       71.23       71.12       71.01    
        70.92       70.82       70.73       70.64       70.55       70.46       70.38       70.30       70.23       70.16    
        70.10       70.04       69.99       69.94       69.90       69.87       69.84       69.82       69.81       69.80    
        69.80       69.81       69.82       69.83       69.85       69.88       69.91       69.94       69.97       70.00    
  42    70.00       70.30       70.57       70.81       71.03       71.21       71.36       71.49       71.58       71.65    
        71.69       71.70       71.68       71.63       71.55       71.45       71.34       71.24       71.13       71.03    
        70.93       70.84       70.75       70.66       70.57       70.49       70.41       70.34       70.26       70.20    
        70.14       70.08       70.03       69.98       69.94       69.91       69.88       69.86       69.85       69.84    
        69.84       69.84       69.85       69.86       69.88       69.90       69.92       69.95       69.97       70.00    
  43    70.00       70.30       70.57       70.81       71.02       71.21       71.36       71.48       71.58       71.65    
        71.68       71.69       71.68       71.63       71.55       71.45       71.35       71.24       71.14       71.04    
        70.95       70.86       70.77       70.68       70.60       70.51       70.44       70.36       70.29       70.23    
        70.17       70.11       70.06       70.02       69.98       69.95       69.92       69.90       69.88       69.87    
        69.87       69.87       69.87       69.88       69.90       69.91       69.93       69.95       69.98       70.00    
  44    70.00       70.30       70.57       70.81       71.02       71.20       71.36       71.48       71.58       71.65    
        71.68       71.69       71.68       71.63       71.56       71.46       71.35       71.25       71.15       71.05    
        70.96       70.87       70.78       70.70       70.62       70.54       70.46       70.39       70.32       70.26    
        70.20       70.14       70.09       70.05       70.01       69.98       69.95       69.93       69.91       69.90    
        69.89       69.89       69.89       69.90       69.91       69.93       69.94       69.96       69.98       70.00    
  45    70.00       70.30       70.57       70.81       71.02       71.20       71.36       71.48       71.58       71.64    
        71.68       71.69       71.68       71.63       71.56       71.46       71.36       71.26       71.16       71.06    
        70.97       70.88       70.80       70.71       70.63       70.55       70.48       70.41       70.34       70.28    
        70.22       70.17       70.12       70.07       70.04       70.00       69.97       69.95       69.93       69.92    
        69.91       69.91       69.91       69.92       69.93       69.94       69.95       69.97       69.98       70.00    
  46    70.00       70.30       70.57       70.81       71.02       71.20       71.36       71.48       71.58       71.64    
        71.68       71.70       71.68       71.63       71.56       71.46       71.36       71.27       71.17       71.07    
        70.98       70.90       70.81       70.73       70.65       70.57       70.50       70.43       70.36       70.30    
        70.24       70.19       70.14       70.10       70.06       70.02       70.00       69.97       69.95       69.94    
        69.93       69.93       69.93       69.93       69.94       69.95       69.96       69.97       69.99       70.00    
  47    70.00       70.30       70.57       70.81       71.02       71.20       71.35       71.48       71.58       71.64    
        71.68       71.70       71.68       71.64       71.57       71.47       71.37       71.27       71.18       71.08    
        70.99       70.90       70.82       70.74       70.66       70.58       70.51       70.44       70.37       70.31    
        70.26       70.20       70.16       70.11       70.07       70.04       70.01       69.99       69.97       69.96    
        69.95       69.94       69.94       69.94       69.95       69.95       69.96       69.97       69.99       70.00    
  48    70.00       70.30       70.57       70.81       71.02       71.20       71.35       71.48       71.58       71.64    
        71.68       71.70       71.68       71.64       71.57       71.47       71.37       71.28       71.18       71.09    
        71.00       70.91       70.83       70.75       70.67       70.59       70.52       70.45       70.38       70.32    
        70.27       70.22       70.17       70.12       70.09       70.05       70.02       70.00       69.98       69.97    
        69.96       69.95       69.95       69.95       69.95       69.96       69.97       69.98       69.99       70.00    
  49    70.00       70.30       70.57       70.81       71.02       71.20       71.35       71.48       71.58       71.64    
        71.68       71.70       71.68       71.64       71.57       71.47       71.37       71.28       71.18       71.09    
        71.00       70.92       70.83       70.75       70.67       70.60       70.52       70.46       70.39       70.33    
        70.28       70.22       70.18       70.13       70.10       70.06       70.03       70.01       69.99       69.97    
        69.96       69.96       69.95       69.95       69.96       69.96       69.97       69.98       69.99       70.00    
  50    70.00       70.30       70.57       70.81       71.02       71.20       71.35       71.48       71.58       71.64    
        71.68       71.70       71.68       71.64       71.57       71.47       71.37       71.28       71.18       71.09    
        71.00       70.92       70.83       70.75       70.67       70.60       70.53       70.46       70.40       70.34    
        70.28       70.23       70.18       70.14       70.10       70.07       70.04       70.01       69.99       69.98    
        69.97       69.96       69.96       69.96       69.96       69.96       69.97       69.98       69.99       70.00    

 HEAD WILL BE SAVED ON UNIT   51 AT END OF TIME STEP    1, STRESS PERIOD    1

 DRAWDOWN WILL BE SAVED ON UNIT   52 AT END OF TIME STEP    1, STRESS PERIOD    1
1
  VOLUMETRIC BUDGET FOR ENTIRE MODEL AT END OF TIME STEP    1, STRESS PERIOD   1
  ------------------------------------------------------------------------------

     CUMULATIVE VOLUMES      L**3       RATES FOR THIS TIME STEP      L**3/T
     ------------------                 ------------------------

           IN:                                      IN:
           ---                                      ---
             STORAGE =           0.0000               STORAGE =           0.0000
       CONSTANT HEAD =        3331.9836         CONSTANT HEAD =        3331.9836
               WELLS =         375.0000                 WELLS =         375.0000
       RIVER LEAKAGE =        6000.0000         RIVER LEAKAGE =        6000.0000
                  ET =           0.0000                    ET =           0.0000
            RECHARGE =        7600.0000              RECHARGE =        7600.0000

            TOTAL IN =       17306.9844              TOTAL IN =       17306.9844

          OUT:                                     OUT:
          ----                                     ----
             STORAGE =           0.0000               STORAGE =           0.0000
       CONSTANT HEAD =        4176.5474         CONSTANT HEAD =        4176.5474
               WELLS =        6000.0000                 WELLS =        6000.0000
       RIVER LEAKAGE =           0.0000         RIVER LEAKAGE =           0.0000
                  ET =        7130.4380                    ET =        7130.4380
            RECHARGE =           0.0000              RECHARGE =           0.0000

           TOTAL OUT =       17306.9844             TOTAL OUT =       17306.9844

            IN - OUT =           0.0000              IN - OUT =           0.0000

 PERCENT DISCREPANCY =           0.00     PERCENT DISCREPANCY =           0.00






         TIME SUMMARY AT END OF TIME STEP    1 IN STRESS PERIOD    1
                    SECONDS     MINUTES      HOURS       DAYS        YEARS
                    -----------------------------------------------------------
   TIME STEP LENGTH  86400.      1440.0      24.000      1.0000     2.73785E-03
 STRESS PERIOD TIME  86400.      1440.0      24.000      1.0000     2.73785E-03
         TOTAL TIME  86400.      1440.0      24.000      1.0000     2.73785E-03
1

 Run end date and time (yyyy/mm/dd hh:mm:ss): 2026/02/25  7:17:50
 Elapsed run time:  8.321 Seconds

