                                  MODFLOW-2005     
      U.S. GEOLOGICAL SURVEY MODULAR FINITE-DIFFERENCE GROUND-WATER FLOW MODEL
                            VERSION 1.12.00 2/3/2017

 LIST FILE: static_ensemble_S2wel_1213121.list
                         UNIT    2

 OPENING static_ensemble_S2wel_1213121.dis
 FILE TYPE:DIS   UNIT   11   STATUS:OLD    
 FORMAT:FORMATTED              ACCESS:SEQUENTIAL          

 OPENING static_ensemble_S2wel_1213121.bas
 FILE TYPE:BAS6   UNIT   13   STATUS:OLD    
 FORMAT:FORMATTED              ACCESS:SEQUENTIAL          

 OPENING static_ensemble_S2wel_1213121.lpf
 FILE TYPE:LPF   UNIT   15   STATUS:OLD    
 FORMAT:FORMATTED              ACCESS:SEQUENTIAL          

 OPENING static_ensemble_S2wel_1213121.evt
 FILE TYPE:EVT   UNIT   22   STATUS:OLD    
 FORMAT:FORMATTED              ACCESS:SEQUENTIAL          

 OPENING static_ensemble_S2wel_1213121.rch
 FILE TYPE:RCH   UNIT   19   STATUS:OLD    
 FORMAT:FORMATTED              ACCESS:SEQUENTIAL          

 OPENING static_ensemble_S2wel_1213121.riv
 FILE TYPE:RIV   UNIT   18   STATUS:OLD    
 FORMAT:FORMATTED              ACCESS:SEQUENTIAL          

 OPENING static_ensemble_S2wel_1213121.wel
 FILE TYPE:WEL   UNIT   20   STATUS:OLD    
 FORMAT:FORMATTED              ACCESS:SEQUENTIAL          

 OPENING static_ensemble_S2wel_1213121.oc
 FILE TYPE:OC   UNIT   14   STATUS:OLD    
 FORMAT:FORMATTED              ACCESS:SEQUENTIAL          

 OPENING static_ensemble_S2wel_1213121.pcg
 FILE TYPE:PCG   UNIT   27   STATUS:OLD    
 FORMAT:FORMATTED              ACCESS:SEQUENTIAL          

 OPENING static_ensemble_S2wel_1213121.cbc
 FILE TYPE:DATA(BINARY)   UNIT   53   STATUS:REPLACE
 FORMAT:UNFORMATTED            ACCESS:STREAM              

 OPENING static_ensemble_S2wel_1213121.hds
 FILE TYPE:DATA(BINARY)   UNIT   51   STATUS:REPLACE
 FORMAT:UNFORMATTED            ACCESS:STREAM              

 OPENING static_ensemble_S2wel_1213121.ddn
 FILE TYPE:DATA(BINARY)   UNIT   52   STATUS:REPLACE
 FORMAT:UNFORMATTED            ACCESS:STREAM              

 BAS -- BASIC PACKAGE, VERSION 7, 5/2/2005 INPUT READ FROM UNIT   13
 
 MODFLOW was compiled using mixed precision
 Precision of REAL variables:           6
 Precision of DOUBLE PRECISION variables:          15

 DISCRETIZATION INPUT DATA READ FROM UNIT   11
 # DIS package for MODFLOW-2005 generated by Flopy 3.10.0
    3 LAYERS        50 ROWS        50 COLUMNS
    1 STRESS PERIOD(S) IN SIMULATION
 MODEL TIME UNIT IS DAYS
 MODEL LENGTH UNIT IS METERS
  Confining bed flag for each layer:
   0   0   0

                     DELR =   1000.00    

                     DELC =   1000.00    



           TOP ELEVATION OF LAYER 1
 READING ON UNIT   11 WITH FORMAT: (50E15.6)           



             MODEL LAYER BOTTOM EL. FOR LAYER   1
 READING ON UNIT   11 WITH FORMAT: (50E15.6)           



             MODEL LAYER BOTTOM EL. FOR LAYER   2
 READING ON UNIT   11 WITH FORMAT: (50E15.6)           



             MODEL LAYER BOTTOM EL. FOR LAYER   3
 READING ON UNIT   11 WITH FORMAT: (50E15.6)           


 STRESS PERIOD     LENGTH       TIME STEPS     MULTIPLIER FOR DELT    SS FLAG
 ----------------------------------------------------------------------------
        1         1.000000          1                    1.000         SS

 STEADY-STATE SIMULATION



 
 # BAS6 package for MODFLOW-2005 generated by Flopy 3.10.0                       
 THE FREE FORMAT OPTION HAS BEEN SELECTED



                     BOUNDARY ARRAY FOR LAYER   1
 READING ON UNIT   13 WITH FORMAT: (50I10)             



                     BOUNDARY ARRAY FOR LAYER   2
 READING ON UNIT   13 WITH FORMAT: (50I10)             



                     BOUNDARY ARRAY FOR LAYER   3
 READING ON UNIT   13 WITH FORMAT: (50I10)             

 AQUIFER HEAD WILL BE SET TO  -999.99     AT ALL NO-FLOW NODES (IBOUND=0).



                       INITIAL HEAD FOR LAYER   1
 READING ON UNIT   13 WITH FORMAT: (50E15.6)           



                       INITIAL HEAD FOR LAYER   2
 READING ON UNIT   13 WITH FORMAT: (50E15.6)           



                       INITIAL HEAD FOR LAYER   3
 READING ON UNIT   13 WITH FORMAT: (50E15.6)           
 # OC package for MODFLOW-2005 generated by Flopy 3.10.0

 OUTPUT CONTROL IS SPECIFIED ONLY AT TIME STEPS FOR WHICH OUTPUT IS DESIRED
 COMPACT CELL-BY-CELL BUDGET FILES WILL BE WRITTEN
 AUXILIARY DATA WILL BE SAVED IN CELL-BY-CELL BUDGET FILES
 HEAD PRINT FORMAT CODE IS   0    DRAWDOWN PRINT FORMAT CODE IS   0
 HEADS WILL BE SAVED ON UNIT   51    DRAWDOWNS WILL BE SAVED ON UNIT   52

 LPF -- LAYER-PROPERTY FLOW PACKAGE, VERSION 7, 5/2/2005
         INPUT READ FROM UNIT   15
 # LPF package for MODFLOW-2005 generated by Flopy 3.10.0
 CELL-BY-CELL FLOWS WILL BE SAVED ON UNIT   53
 HEAD AT CELLS THAT CONVERT TO DRY= -1.00000E+30
 No named parameters
 STORAGECOEFFICIENT OPTION:
 Read storage coefficient rather than specific storage

   LAYER FLAGS:
 LAYER       LAYTYP        LAYAVG         CHANI        LAYVKA        LAYWET
 ---------------------------------------------------------------------------
    1             1             0     1.000E+00             0             0
    2             1             0     1.000E+00             0             0
    3             1             0     1.000E+00             0             0

   INTERPRETATION OF LAYER FLAGS:
                        INTERBLOCK     HORIZONTAL    DATA IN
         LAYER TYPE   TRANSMISSIVITY   ANISOTROPY   ARRAY VKA   WETTABILITY
 LAYER      (LAYTYP)      (LAYAVG)       (CHANI)      (LAYVKA)      (LAYWET)
 ---------------------------------------------------------------------------
    1   CONVERTIBLE      HARMONIC     1.000E+00    VERTICAL K  NON-WETTABLE
    2   CONVERTIBLE      HARMONIC     1.000E+00    VERTICAL K  NON-WETTABLE
    3   CONVERTIBLE      HARMONIC     1.000E+00    VERTICAL K  NON-WETTABLE

 WETTING CAPABILITY IS NOT ACTIVE IN ANY LAYER



              HYD. COND. ALONG ROWS FOR LAYER   1
 READING ON UNIT   15 WITH FORMAT: (50E15.6)           



                VERTICAL HYD. COND. FOR LAYER   1
 READING ON UNIT   15 WITH FORMAT: (50E15.6)           



              HYD. COND. ALONG ROWS FOR LAYER   2
 READING ON UNIT   15 WITH FORMAT: (50E15.6)           



                VERTICAL HYD. COND. FOR LAYER   2
 READING ON UNIT   15 WITH FORMAT: (50E15.6)           



              HYD. COND. ALONG ROWS FOR LAYER   3
 READING ON UNIT   15 WITH FORMAT: (50E15.6)           



                VERTICAL HYD. COND. FOR LAYER   3
 READING ON UNIT   15 WITH FORMAT: (50E15.6)           

 WEL -- WELL PACKAGE, VERSION 7, 5/2/2005 INPUT READ FROM UNIT   20
 # WEL package for MODFLOW-2005 generated by Flopy 3.10.0
 No named parameters
 MAXIMUM OF      4 ACTIVE WELLS AT ONE TIME


     0 Well parameters

 RIV -- RIVER PACKAGE, VERSION 7, 5/2/2005 INPUT READ FROM UNIT   18
 # RIV package for MODFLOW-2005 generated by Flopy 3.10.0
 No named parameters
 MAXIMUM OF     49 ACTIVE RIVER REACHES AT ONE TIME
 CELL-BY-CELL FLOWS WILL BE SAVED ON UNIT   53


     0 River parameters

 EVT -- EVAPOTRANSPIRATION PACKAGE, VERSION 7, 5/2/2005
         INPUT READ FROM UNIT   22
 # EVT package for MODFLOW-2005 generated by Flopy 3.10.0
 No named parameters
 OPTION 3 -- EVAPOTRANSPIRATION FROM HIGHEST ACTIVE NODE IN EACH VERTICAL COLUMN
 CELL-BY-CELL FLOWS WILL BE SAVED ON UNIT   53


     0 Evapotranspiration parameters

 RCH -- RECHARGE PACKAGE, VERSION 7, 5/2/2005 INPUT READ FROM UNIT   19
 # RCH package for MODFLOW-2005 generated by Flopy 3.10.0
 No named parameters
 OPTION 3 -- RECHARGE TO HIGHEST ACTIVE NODE IN EACH VERTICAL COLUMN
 CELL-BY-CELL FLOWS WILL BE SAVED ON UNIT   53


     0 Recharge parameters

 PCG -- CONJUGATE-GRADIENT SOLUTION PACKAGE, VERSION 7, 5/2/2005
 # PCG package for MODFLOW-2005 generated by Flopy 3.10.0
 MAXIMUM OF   5000 CALLS OF SOLUTION ROUTINE
 MAXIMUM OF    500 INTERNAL ITERATIONS PER CALL TO SOLUTION ROUTINE
 MATRIX PRECONDITIONING TYPE :    1



                                    SOLUTION BY THE CONJUGATE-GRADIENT METHOD
                                   -------------------------------------------
                    MAXIMUM NUMBER OF CALLS TO PCG ROUTINE =     5000
                        MAXIMUM ITERATIONS PER CALL TO PCG =      500
                               MATRIX PRECONDITIONING TYPE =        1
        RELAXATION FACTOR (ONLY USED WITH PRECOND. TYPE 1) =    0.97000E+00
 PARAMETER OF POLYNOMIAL PRECOND. = 2 (2) OR IS CALCULATED :        0
                         HEAD CHANGE CRITERION FOR CLOSURE =    0.10000E-04
                     RESIDUAL CHANGE CRITERION FOR CLOSURE =    0.10000E-04
            PCG HEAD AND RESIDUAL CHANGE PRINTOUT INTERVAL =      999
     PRINTING FROM SOLVER IS LIMITED(1) OR SUPPRESSED (>1) =        3
                            STEADY-STATE DAMPING PARAMETER =    0.10000E-01
                               TRANSIENT DAMPING PARAMETER =    0.10000E-01
1
                            STRESS PERIOD NO.    1, LENGTH =   1.000000    
                            -----------------------------------------------

                              NUMBER OF TIME STEPS =     1

                               MULTIPLIER FOR DELT =     1.000

                            INITIAL TIME STEP SIZE =   1.000000    

 WELL NO.  LAYER   ROW   COL   STRESS RATE         
 --------------------------------------------------
      1      3     22     39      -1500.    
      2      1     13     15      -4500.    
      3      1     25     26       375.0    
      4      3     30     39      -1500.    

      4 WELLS

 REACH NO.  LAYER   ROW   COL     STAGE      CONDUCTANCE     BOTTOM EL.         
 -------------------------------------------------------------------------------
      1      1     25      2       100.5           50.00           98.00    
      2      1     25      3       99.50           50.00           97.00    
      3      1     25      4       98.50           50.00           96.00    
      4      1     25      5       97.50           50.00           95.00    
      5      1     25      6       96.50           50.00           94.00    
      6      1     25      7       95.50           50.00           93.00    
      7      1     25      8       94.50           50.00           92.00    
      8      1     25      9       93.50           50.00           91.00    
      9      1     25     10       92.50           50.00           90.00    
     10      1     25     11       91.50           50.00           89.00    
     11      1     25     12       90.50           50.00           88.00    
     12      1     25     13       89.50           50.00           87.00    
     13      1     25     14       88.50           50.00           86.00    
     14      1     25     15       87.50           50.00           85.00    
     15      1     25     16       86.50           50.00           84.00    
     16      1     25     17       85.50           50.00           83.00    
     17      1     25     18       84.50           50.00           82.00    
     18      1     25     19       83.50           50.00           81.00    
     19      1     25     20       82.50           50.00           80.00    
     20      1     25     21       81.50           50.00           79.00    
     21      1     25     22       80.50           50.00           78.00    
     22      1     25     23       79.50           50.00           77.00    
     23      1     25     24       78.50           50.00           76.00    
     24      1     25     25       77.50           50.00           75.00    
     25      1     25     26       77.40           50.00           74.90    
     26      1     25     27       77.30           50.00           74.80    
     27      1     25     28       77.20           50.00           74.70    
     28      1     25     29       77.10           50.00           74.60    
     29      1     25     30       77.00           50.00           74.50    
     30      1     25     31       76.90           50.00           74.40    
     31      1     25     32       76.80           50.00           74.30    
     32      1     25     33       76.70           50.00           74.20    
     33      1     25     34       76.60           50.00           74.10    
     34      1     25     35       76.50           50.00           74.00    
     35      1     25     36       76.40           50.00           73.90    
     36      1     25     37       76.30           50.00           73.80    
     37      1     25     38       76.20           50.00           73.70    
     38      1     25     39       76.10           50.00           73.60    
     39      1     25     40       76.00           50.00           73.50    
     40      1     25     41       75.90           50.00           73.40    
     41      1     25     42       75.80           50.00           73.30    
     42      1     25     43       75.70           50.00           73.20    
     43      1     25     44       75.60           50.00           73.10    
     44      1     25     45       75.50           50.00           73.00    
     45      1     25     46       75.40           50.00           72.90    
     46      1     25     47       75.30           50.00           72.80    
     47      1     25     48       75.20           50.00           72.70    
     48      1     25     49       75.10           50.00           72.60    
     49      1     25     50       75.00           50.00           72.50    

     49 RIVER REACHES



                         ET SURFACE
 READING ON UNIT   22 WITH FORMAT: (50E15.6)           



            EVAPOTRANSPIRATION RATE
 READING ON UNIT   22 WITH FORMAT: (50E15.6)           

         EXTINCTION DEPTH =   10.0000    



                           RECHARGE
 READING ON UNIT   19 WITH FORMAT: (50E15.6)           
 
 SOLVING FOR HEAD 

 OUTPUT CONTROL FOR STRESS PERIOD    1   TIME STEP    1
    SAVE HEAD FOR ALL LAYERS
    SAVE DRAWDOWN FOR ALL LAYERS
    SAVE BUDGET
    PRINT HEAD FOR ALL LAYERS
    PRINT BUDGET
 UBDSV2 SAVING "   CONSTANT HEAD" ON UNIT  53 AT TIME STEP  1, STRESS PERIOD   1
 UBDSV1 SAVING "FLOW RIGHT FACE " ON UNIT  53 AT TIME STEP  1, STRESS PERIOD   1
 UBDSV1 SAVING "FLOW FRONT FACE " ON UNIT  53 AT TIME STEP  1, STRESS PERIOD   1
 UBDSV1 SAVING "FLOW LOWER FACE " ON UNIT  53 AT TIME STEP  1, STRESS PERIOD   1
 UBDSV4 SAVING "   RIVER LEAKAGE" ON UNIT  53 AT TIME STEP  1, STRESS PERIOD   1
 UBDSV3 SAVING "              ET" ON UNIT  53 AT TIME STEP  1, STRESS PERIOD   1
 UBDSV3 SAVING "        RECHARGE" ON UNIT  53 AT TIME STEP  1, STRESS PERIOD   1
1
              HEAD IN LAYER   1 AT END OF TIME STEP   1 IN STRESS PERIOD    1
  ---------------------------------------------------------------------------

            1           2           3           4           5           6           7           8           9          10
           11          12          13          14          15          16          17          18          19          20
           21          22          23          24          25          26          27          28          29          30
           31          32          33          34          35          36          37          38          39          40
           41          42          43          44          45          46          47          48          49          50
 ........................................................................................................................
   1  -1000.0     -1000.0     -1000.0     -1000.0     -1000.0     -1000.0     -1000.0     -1000.0     -1000.0     -1000.0    
      -1000.0     -1000.0     -1000.0     -1000.0     -1000.0     -1000.0     -1000.0     -1000.0     -1000.0     -1000.0    
      -1000.0     -1000.0     -1000.0     -1000.0     -1000.0     -1000.0     -1000.0     -1000.0     -1000.0     -1000.0    
      -1000.0     -1000.0     -1000.0     -1000.0     -1000.0     -1000.0     -1000.0     -1000.0     -1000.0     -1000.0    
      -1000.0     -1000.0     -1000.0     -1000.0     -1000.0     -1000.0     -1000.0     -1000.0     -1000.0       70.00    
   2  -1000.0     -1000.0     -1000.0     -1000.0     -1000.0       105.1       104.8       104.3       103.8       103.1    
        102.5       101.9       101.1       100.3       99.33       98.32       97.33       96.36       95.42       94.49    
        93.58       92.69       91.81       90.94       90.09       89.24       88.40       87.57       86.74       85.92    
        85.11       84.30       83.49       82.69       81.90       81.10       80.31       79.52       78.74       77.95    
        77.17       76.39       75.60       74.82       74.03       73.23       72.43       71.63       70.82       70.00    
   3  -1000.0     -1000.0     -1000.0     -1000.0       105.4       105.2       104.8       104.3       103.7       103.2    
        102.6       101.9       101.1       100.2       99.30       98.29       97.30       96.33       95.39       94.47    
        93.56       92.67       91.79       90.93       90.07       89.22       88.38       87.55       86.73       85.91    
        85.09       84.28       83.48       82.68       81.88       81.09       80.30       79.51       78.73       77.95    
        77.16       76.38       75.60       74.81       74.02       73.23       72.43       71.63       70.82       70.00    
   4  -1000.0     -1000.0     -1000.0       105.8       105.6       105.2       104.8       104.3       103.8       103.2    
        102.5       101.8       101.0       100.2       99.24       98.22       97.24       96.27       95.33       94.41    
        93.51       92.63       91.75       90.89       90.04       89.19       88.35       87.52       86.70       85.88    
        85.07       84.26       83.46       82.66       81.86       81.07       80.28       79.50       78.71       77.93    
        77.15       76.37       75.58       74.80       74.01       73.22       72.43       71.62       70.82       70.00    
   5  -1000.0     -1000.0       106.1       105.9       105.6       105.2       104.7       104.3       103.8       103.2    
        102.5       101.8       101.0       100.1       99.14       98.12       97.14       96.18       95.25       94.33    
        93.44       92.56       91.69       90.83       89.99       89.14       88.31       87.48       86.66       85.84    
        85.03       84.22       83.42       82.62       81.83       81.04       80.25       79.47       78.68       77.90    
        77.12       76.34       75.56       74.78       74.00       73.21       72.42       71.62       70.81       70.00    
   6  -1000.0       106.3       106.1       105.9       105.6       105.2       104.8       104.3       103.7       103.1    
        102.4       101.7       100.8       99.96       99.00       97.98       97.00       96.05       95.13       94.23    
        93.35       92.48       91.62       90.76       89.92       89.08       88.25       87.42       86.60       85.79    
        84.98       84.17       83.37       82.58       81.78       80.99       80.21       79.43       78.65       77.87    
        77.09       76.31       75.54       74.76       73.98       73.19       72.41       71.61       70.81       70.00    
   7  -1000.0       106.2       106.1       105.9       105.5       105.2       104.8       104.3       103.7       103.1    
        102.3       101.6       100.7       99.78       98.81       97.79       96.82       95.88       94.98       94.10    
        93.23       92.37       91.52       90.68       89.84       89.01       88.18       87.36       86.54       85.72    
        84.92       84.11       83.31       82.52       81.73       80.94       80.16       79.38       78.60       77.82    
        77.05       76.28       75.51       74.73       73.95       73.17       72.39       71.60       70.80       70.00    
   8  -1000.0       106.2       106.0       105.8       105.5       105.2       104.7       104.2       103.6       103.0    
        102.2       101.4       100.5       99.55       98.56       97.54       96.59       95.68       94.80       93.94    
        93.09       92.25       91.41       90.58       89.75       88.92       88.09       87.27       86.46       85.65    
        84.84       84.04       83.24       82.45       81.66       80.88       80.09       79.32       78.54       77.77    
        77.00       76.23       75.47       74.70       73.93       73.15       72.37       71.59       70.80       70.00    
   9  -1000.0       106.1       105.9       105.7       105.5       105.1       104.7       104.2       103.5       102.8    
        102.1       101.2       100.2       99.24       98.23       97.22       96.31       95.44       94.60       93.77    
        92.94       92.12       91.29       90.47       89.64       88.82       88.00       87.18       86.37       85.56    
        84.75       83.95       83.16       82.37       81.58       80.80       80.02       79.25       78.48       77.71    
        76.95       76.18       75.42       74.66       73.89       73.12       72.35       71.58       70.79       70.00    
  10  -1000.0       106.0       105.9       105.7       105.4       105.1       104.6       104.1       103.4       102.7    
        101.9       100.9       99.92       98.84       97.78       96.81       95.96       95.16       94.37       93.58    
        92.79       91.98       91.17       90.35       89.53       88.71       87.89       87.08       86.27       85.46    
        84.65       83.86       83.06       82.27       81.49       80.71       79.93       79.16       78.40       77.64    
        76.88       76.12       75.37       74.61       73.85       73.09       72.33       71.56       70.78       70.00    
  11  -1000.0       105.9       105.8       105.6       105.4       105.0       104.6       104.0       103.3       102.6    
        101.7       100.7       99.54       98.31       97.12       96.26       95.55       94.86       94.14       93.40    
        92.63       91.84       91.04       90.23       89.41       88.60       87.78       86.96       86.15       85.35    
        84.54       83.75       82.95       82.17       81.38       80.61       79.84       79.07       78.31       77.56    
        76.80       76.05       75.31       74.56       73.81       73.06       72.30       71.54       70.77       70.00    
  12  -1000.0       105.9       105.8       105.6       105.3       104.9       104.5       103.9       103.2       102.5    
        101.5       100.4       99.15       97.63       96.00       95.55       95.13       94.58       93.94       93.23    
        92.48       91.71       90.91       90.10       89.29       88.47       87.65       86.84       86.03       85.22    
        84.42       83.62       82.83       82.05       81.27       80.49       79.73       78.96       78.21       77.46    
        76.72       75.98       75.24       74.50       73.76       73.02       72.27       71.52       70.76       70.00    
  13  -1000.0       105.8       105.7       105.5       105.3       104.9       104.4       103.8       103.2       102.4    
        101.4       100.3       98.86       96.92       93.53       94.82       94.82       94.39       93.79       93.10    
        92.36       91.58       90.79       89.98       89.16       88.34       87.52       86.71       85.90       85.09    
        84.29       83.49       82.70       81.92       81.14       80.37       79.60       78.84       78.10       77.35    
        76.62       75.89       75.16       74.43       73.71       72.98       72.24       71.50       70.75       70.00    
  14  -1000.0       105.7       105.7       105.5       105.2       104.8       104.4       103.8       103.1       102.3    
        101.4       100.3       98.98       97.45       95.81       95.36       94.93       94.38       93.73       93.02    
        92.26       91.48       90.67       89.86       89.03       88.20       87.38       86.56       85.75       84.94    
        84.14       83.34       82.55       81.77       80.99       80.22       79.46       78.71       77.97       77.24    
        76.51       75.79       75.08       74.36       73.65       72.93       72.21       71.48       70.74       70.00    
  15  -1000.0       105.7       105.6       105.4       105.1       104.8       104.3       103.7       103.1       102.3    
        101.4       100.4       99.20       97.95       96.74       95.87       95.16       94.45       93.73       92.97    
        92.18       91.38       90.56       89.73       88.89       88.06       87.23       86.41       85.59       84.79    
        83.98       83.19       82.40       81.61       80.84       80.07       79.31       78.56       77.82       77.10    
        76.39       75.68       74.99       74.29       73.59       72.88       72.17       71.46       70.73       70.00    
  16  -1000.0       105.6       105.5       105.3       105.1       104.7       104.2       103.7       103.0       102.3    
        101.4       100.5       99.41       98.31       97.22       96.23       95.36       94.55       93.75       92.94    
        92.12       91.28       90.44       89.60       88.75       87.91       87.07       86.24       85.43       84.62    
        83.81       83.02       82.23       81.44       80.66       79.89       79.13       78.39       77.66       76.95    
        76.25       75.57       74.89       74.21       73.52       72.83       72.14       71.43       70.72       70.00    
  17  -1000.0       105.5       105.4       105.3       105.0       104.6       104.2       103.6       103.0       102.3    
        101.5       100.5       99.56       98.53       97.49       96.45       95.51       94.62       93.76       92.91    
        92.05       91.19       90.32       89.46       88.60       87.74       86.90       86.07       85.25       84.43    
        83.63       82.83       82.04       81.26       80.48       79.70       78.94       78.19       77.47       76.77    
        76.10       75.44       74.78       74.12       73.46       72.78       72.10       71.41       70.71       70.00    
  18  -1000.0       105.4       105.4       105.2       104.9       104.6       104.1       103.6       103.0       102.3    
        101.5       100.6       99.64       98.65       97.63       96.58       95.60       94.67       93.76       92.87    
        91.97       91.08       90.19       89.31       88.43       87.57       86.72       85.88       85.05       84.24    
        83.44       82.64       81.85       81.06       80.27       79.49       78.72       77.97       77.25       76.57    
        75.93       75.30       74.67       74.04       73.39       72.74       72.07       71.39       70.70       70.00    
  19  -1000.0       105.4       105.3       105.1       104.8       104.5       104.0       103.5       102.9       102.2    
        101.4       100.6       99.66       98.69       97.68       96.62       95.62       94.67       93.75       92.82    
        91.89       90.96       90.04       89.14       88.25       87.38       86.52       85.68       84.85       84.04    
        83.23       82.44       81.65       80.85       80.06       79.27       78.48       77.71       76.98       76.34    
        75.74       75.15       74.56       73.96       73.34       72.70       72.05       71.38       70.69       70.00    
  20  -1000.0       105.3       105.2       105.0       104.7       104.4       103.9       103.4       102.8       102.1    
        101.4       100.5       99.62       98.67       97.66       96.59       95.59       94.64       93.72       92.77    
        91.78       90.81       89.87       88.95       88.05       87.16       86.30       85.46       84.63       83.82    
        83.02       82.23       81.44       80.64       79.85       79.04       78.21       77.39       76.63       76.05    
        75.53       75.00       74.46       73.89       73.29       72.67       72.03       71.37       70.69       70.00    
  21  -1000.0       105.2       105.1       104.9       104.6       104.3       103.8       103.3       102.7       102.0    
        101.2       100.4       99.53       98.57       97.56       96.50       95.49       94.56       93.73       92.76    
        91.64       90.62       89.65       88.72       87.81       86.93       86.07       85.23       84.40       83.59    
        82.80       82.01       81.22       80.43       79.63       78.81       77.94       77.02       76.09       75.70    
        75.32       74.87       74.38       73.84       73.27       72.66       72.03       71.38       70.70       70.00    
  22  -1000.0       105.0       105.0       104.8       104.5       104.1       103.7       103.1       102.5       101.8    
        101.1       100.3       99.37       98.42       97.40       96.32       95.30       94.36       93.51       92.53    
        91.40       90.36       89.38       88.45       87.55       86.67       85.81       84.97       84.16       83.35    
        82.57       81.79       81.01       80.23       79.44       78.61       77.71       76.63       75.03       75.35    
        75.16       74.79       74.33       73.82       73.27       72.68       72.05       71.40       70.71       70.00    
  23  -1000.0       104.9       104.8       104.6       104.3       104.0       103.5       103.0       102.3       101.7    
        100.9       100.1       99.17       98.21       97.18       96.09       95.04       94.04       93.08       92.08    
        91.04       90.03       89.07       88.14       87.25       86.40       85.54       84.70       83.89       83.10    
        82.33       81.57       80.81       80.05       79.28       78.49       77.65       76.77       75.88       75.54    
        75.20       74.80       74.34       73.85       73.31       72.73       72.11       71.44       70.74       70.00    
  24  -1000.0       104.8       104.7       104.5       104.2       103.8       103.3       102.8       102.1       101.4    
        100.7       99.81       98.91       97.94       96.90       95.79       94.72       93.69       92.67       91.66    
        90.64       89.65       88.69       87.78       86.93       86.13       85.25       84.40       83.60       82.83    
        82.08       81.34       80.61       79.88       79.15       78.40       77.65       76.90       76.22       75.73    
        75.29       74.86       74.40       73.91       73.39       72.82       72.20       71.53       70.79       70.00    
  25  -1000.0       104.7       104.6       104.4       104.0       103.6       103.1       102.5       101.9       101.1    
        100.4       99.51       98.59       97.61       96.56       95.44       94.35       93.29       92.25       91.23    
        90.20       89.21       88.25       87.34       86.52       85.93       84.90       84.05       83.27       82.53    
        81.81       81.11       80.41       79.71       79.02       78.33       77.64       76.98       76.37       75.86    
        75.39       74.95       74.49       74.02       73.51       72.96       72.35       71.67       70.91       70.00    
  26  -1000.0       105.1       105.0       104.8       104.5       104.1       103.6       103.1       102.5       101.8    
        101.0       100.2       99.25       98.27       97.22       96.09       94.99       93.92       92.87       91.84    
        90.83       89.84       88.89       87.97       87.11       86.30       85.41       84.55       83.74       82.95    
        82.19       81.44       80.71       79.97       79.24       78.51       77.79       77.11       76.47       75.92    
        75.41       74.93       74.44       73.94       73.40       72.83       72.21       71.53       70.79       70.00    
  27  -1000.0       105.5       105.4       105.2       104.9       104.6       104.1       103.6       103.0       102.3    
        101.6       100.8       99.86       98.89       97.84       96.70       95.60       94.52       93.46       92.43    
        91.41       90.42       89.46       88.53       87.62       86.75       85.87       85.00       84.17       83.35    
        82.56       81.77       81.00       80.22       79.45       78.68       77.92       77.18       76.51       75.93    
        75.42       74.92       74.41       73.89       73.34       72.75       72.12       71.45       70.74       70.00    
  28  -1000.0       105.9       105.8       105.6       105.4       105.0       104.6       104.1       103.5       102.9    
        102.1       101.3       100.4       99.46       98.41       97.27       96.16       95.08       94.02       92.98    
        91.96       90.96       89.99       89.04       88.11       87.20       86.30       85.43       84.57       83.73    
        82.91       82.09       81.29       80.48       79.66       78.84       78.02       77.20       76.45       75.89    
        75.40       74.92       74.41       73.87       73.31       72.71       72.07       71.41       70.71       70.00    
  29  -1000.0       106.3       106.2       106.1       105.8       105.5       105.1       104.6       104.0       103.3    
        102.6       101.8       100.9       99.98       98.93       97.80       96.69       95.60       94.54       93.49    
        92.47       91.47       90.48       89.52       88.57       87.64       86.72       85.83       84.96       84.10    
        83.25       82.41       81.57       80.74       79.89       79.02       78.11       77.15       76.20       75.79    
        75.39       74.94       74.43       73.89       73.31       72.70       72.06       71.39       70.70       70.00    
  30  -1000.0       106.7       106.6       106.4       106.2       105.9       105.5       105.0       104.4       103.8    
        103.1       102.3       101.4       100.5       99.41       98.28       97.17       96.09       95.02       93.97    
        92.94       91.93       90.94       89.96       89.00       88.05       87.12       86.21       85.32       84.44    
        83.58       82.72       81.86       81.00       80.13       79.22       78.25       77.10       75.44       75.68    
        75.43       75.00       74.49       73.93       73.34       72.71       72.06       71.39       70.70       70.00    
  31  -1000.0       107.0       106.9       106.8       106.6       106.2       105.8       105.4       104.8       104.2    
        103.5       102.7       101.8       100.9       99.85       98.73       97.62       96.53       95.46       94.41    
        93.38       92.36       91.36       90.37       89.40       88.44       87.50       86.57       85.67       84.78    
        83.90       83.02       82.15       81.28       80.40       79.50       78.56       77.56       76.56       76.11    
        75.65       75.15       74.60       74.01       73.39       72.75       72.09       71.40       70.71       70.00    
  32  -1000.0       107.3       107.3       107.1       106.9       106.6       106.2       105.7       105.2       104.6    
        103.9       103.1       102.2       101.3       100.3       99.13       98.03       96.94       95.87       94.82    
        93.78       92.76       91.75       90.75       89.77       88.80       87.85       86.92       86.00       85.10    
        84.21       83.32       82.45       81.57       80.69       79.80       78.90       78.01       77.17       76.52    
        75.93       75.34       74.73       74.11       73.47       72.80       72.12       71.43       70.72       70.00    
  33  -1000.0       107.6       107.6       107.4       107.2       106.9       106.5       106.1       105.5       104.9    
        104.2       103.5       102.6       101.7       100.6       99.50       98.40       97.32       96.25       95.19    
        94.15       93.13       92.11       91.11       90.12       89.14       88.18       87.24       86.32       85.40    
        84.51       83.62       82.73       81.86       80.98       80.11       79.24       78.39       77.59       76.87    
        76.20       75.54       74.89       74.23       73.55       72.87       72.17       71.46       70.73       70.00    
  34  -1000.0       107.9       107.8       107.7       107.5       107.2       106.8       106.4       105.8       105.2    
        104.5       103.8       102.9       102.0       101.0       99.84       98.74       97.66       96.59       95.53    
        94.49       93.46       92.45       91.44       90.44       89.46       88.49       87.55       86.61       85.70    
        84.79       83.90       83.01       82.14       81.26       80.40       79.54       78.71       77.91       77.16    
        76.44       75.74       75.05       74.35       73.65       72.94       72.22       71.49       70.75       70.00    
  35  -1000.0       108.2       108.1       108.0       107.7       107.4       107.1       106.6       106.1       105.5    
        104.8       104.1       103.2       102.3       101.3       100.2       99.05       97.97       96.90       95.85    
        94.81       93.78       92.76       91.75       90.74       89.76       88.78       87.83       86.90       85.97    
        85.07       84.17       83.28       82.40       81.53       80.67       79.82       78.99       78.19       77.41    
        76.66       75.93       75.20       74.47       73.75       73.01       72.27       71.52       70.77       70.00    
  36  -1000.0       108.4       108.3       108.2       108.0       107.7       107.3       106.9       106.4       105.8    
        105.1       104.3       103.5       102.6       101.5       100.4       99.34       98.26       97.19       96.14    
        95.09       94.06       93.04       92.03       91.02       90.03       89.06       88.10       87.16       86.24    
        85.33       84.43       83.53       82.65       81.78       80.92       80.07       79.24       78.43       77.63    
        76.86       76.10       75.34       74.59       73.84       73.09       72.33       71.56       70.78       70.00    
  37  -1000.0       108.6       108.5       108.4       108.2       107.9       107.5       107.1       106.6       106.0    
        105.3       104.6       103.7       102.8       101.8       100.7       99.59       98.51       97.45       96.40    
        95.35       94.32       93.30       92.29       91.28       90.29       89.31       88.35       87.41       86.48    
        85.57       84.66       83.77       82.88       82.01       81.15       80.30       79.46       78.64       77.83    
        77.04       76.25       75.48       74.71       73.93       73.16       72.38       71.59       70.80       70.00    
  38  -1000.0       108.8       108.7       108.6       108.4       108.1       107.7       107.3       106.8       106.2    
        105.5       104.8       103.9       103.0       102.0       100.9       99.82       98.75       97.68       96.63    
        95.59       94.56       93.54       92.52       91.52       90.52       89.54       88.59       87.64       86.71    
        85.79       84.88       83.99       83.10       82.22       81.35       80.50       79.65       78.82       78.00    
        77.20       76.40       75.60       74.81       74.02       73.23       72.43       71.63       70.82       70.00    
  39  -1000.0       108.9       108.9       108.7       108.5       108.2       107.9       107.4       106.9       106.3    
        105.7       104.9       104.1       103.2       102.2       101.1       100.0       98.95       97.89       96.84    
        95.80       94.77       93.75       92.74       91.73       90.74       89.76       88.80       87.86       86.92    
        86.00       85.09       84.19       83.29       82.41       81.54       80.68       79.83       78.99       78.16    
        77.34       76.52       75.71       74.91       74.10       73.29       72.48       71.66       70.83       70.00    
  40  -1000.0       109.1       109.0       108.9       108.7       108.4       108.0       107.6       107.1       106.5    
        105.8       105.1       104.3       103.4       102.4       101.3       100.2       99.14       98.08       97.03    
        95.99       94.97       93.95       92.93       91.93       90.93       89.96       89.00       88.05       87.11    
        86.19       85.27       84.37       83.47       82.58       81.71       80.84       79.98       79.14       78.30    
        77.46       76.64       75.81       74.99       74.17       73.35       72.52       71.69       70.85       70.00    
  41  -1000.0       109.2       109.1       109.0       108.8       108.5       108.1       107.7       107.2       106.6    
        106.0       105.2       104.4       103.5       102.5       101.4       100.4       99.30       98.24       97.20    
        96.16       95.14       94.12       93.11       92.10       91.11       90.14       89.17       88.22       87.28    
        86.35       85.44       84.53       83.63       82.74       81.86       80.99       80.12       79.27       78.42    
        77.57       76.74       75.90       75.07       74.23       73.40       72.56       71.71       70.86       70.00    
  42  -1000.0       109.4       109.2       109.1       108.9       108.6       108.2       107.8       107.3       106.7    
        106.1       105.3       104.5       103.6       102.6       101.6       100.5       99.44       98.39       97.34    
        96.31       95.29       94.27       93.26       92.26       91.27       90.29       89.33       88.38       87.43    
        86.50       85.58       84.67       83.77       82.87       81.99       81.11       80.24       79.38       78.52    
        77.67       76.82       75.98       75.14       74.29       73.44       72.59       71.74       70.87       70.00    
  43  -1000.0       109.5       109.4       109.2       108.9       108.6       108.3       107.9       107.4       106.8    
        106.1       105.4       104.6       103.7       102.7       101.7       100.6       99.56       98.51       97.47    
        96.44       95.42       94.40       93.39       92.40       91.41       90.43       89.46       88.51       87.57    
        86.63       85.71       84.80       83.89       82.99       82.10       81.22       80.35       79.48       78.62    
        77.76       76.90       76.05       75.19       74.34       73.48       72.62       71.76       70.88       70.00    
  44  -1000.0       109.6       109.5       109.3       109.0       108.7       108.3       107.9       107.4       106.9    
        106.2       105.5       104.7       103.8       102.8       101.8       100.7       99.66       98.61       97.58    
        96.55       95.53       94.51       93.51       92.51       91.52       90.55       89.58       88.63       87.68    
        86.74       85.82       84.90       83.99       83.09       82.20       81.31       80.44       79.56       78.69    
        77.83       76.97       76.11       75.24       74.38       73.52       72.65       71.78       70.89       70.00    
  45  -1000.0       109.6       109.5       109.3       109.1       108.7       108.3       107.9       107.4       106.9    
        106.3       105.5       104.8       103.9       102.9       101.8       100.8       99.74       98.70       97.66    
        96.64       95.62       94.61       93.60       92.61       91.62       90.64       89.68       88.72       87.77    
        86.84       85.91       84.99       84.08       83.18       82.28       81.39       80.51       79.63       78.76    
        77.89       77.02       76.15       75.29       74.42       73.55       72.67       71.79       70.90       70.00    
  46  -1000.0     -1000.0       109.5       109.3       109.1       108.8       108.3       107.9       107.5       106.9    
        106.3       105.6       104.8       103.9       103.0       101.9       100.9       99.81       98.77       97.73    
        96.71       95.69       94.68       93.68       92.68       91.70       90.72       89.75       88.80       87.85    
        86.91       85.98       85.06       84.15       83.24       82.34       81.45       80.57       79.68       78.81    
        77.93       77.06       76.19       75.32       74.45       73.57       72.69       71.80       70.91       70.00    
  47  -1000.0     -1000.0     -1000.0       109.3       109.1       108.8       108.4       107.9       107.4       106.9    
        106.3       105.6       104.8       104.0       103.0       101.9       100.9       99.85       98.82       97.79    
        96.76       95.74       94.73       93.73       92.74       91.75       90.78       89.81       88.85       87.91    
        86.97       86.04       85.11       84.20       83.29       82.39       81.50       80.61       79.73       78.85    
        77.97       77.09       76.22       75.34       74.47       73.59       72.70       71.81       70.91       70.00    
  48  -1000.0     -1000.0     -1000.0     -1000.0       109.0       108.7       108.4       108.0       107.4       106.9    
        106.3       105.6       104.8       104.0       103.0       102.0       100.9       99.89       98.85       97.82    
        96.80       95.78       94.77       93.77       92.78       91.79       90.81       89.85       88.89       87.94    
        87.00       86.07       85.15       84.23       83.33       82.42       81.53       80.64       79.75       78.87    
        77.99       77.11       76.24       75.36       74.48       73.60       72.71       71.82       70.91       70.00    
  49  -1000.0     -1000.0     -1000.0     -1000.0     -1000.0       108.6       108.4       108.0       107.4       106.8    
        106.3       105.6       104.8       104.0       103.0       102.0       100.9       99.90       98.87       97.84    
        96.81       95.80       94.79       93.79       92.79       91.81       90.83       89.87       88.91       87.96    
        87.02       86.09       85.17       84.25       83.34       82.44       81.54       80.65       79.77       78.88    
        78.00       77.13       76.25       75.37       74.49       73.60       72.71       71.82       70.91       70.00    
  50  -1000.0     -1000.0     -1000.0     -1000.0     -1000.0     -1000.0     -1000.0     -1000.0     -1000.0     -1000.0    
      -1000.0     -1000.0     -1000.0     -1000.0     -1000.0     -1000.0     -1000.0     -1000.0     -1000.0     -1000.0    
      -1000.0     -1000.0     -1000.0     -1000.0     -1000.0     -1000.0     -1000.0     -1000.0     -1000.0     -1000.0    
      -1000.0     -1000.0     -1000.0     -1000.0     -1000.0     -1000.0     -1000.0     -1000.0     -1000.0     -1000.0    
      -1000.0     -1000.0     -1000.0     -1000.0     -1000.0     -1000.0     -1000.0     -1000.0     -1000.0       70.00    
1
              HEAD IN LAYER   2 AT END OF TIME STEP   1 IN STRESS PERIOD    1
  ---------------------------------------------------------------------------

            1           2           3           4           5           6           7           8           9          10
           11          12          13          14          15          16          17          18          19          20
           21          22          23          24          25          26          27          28          29          30
           31          32          33          34          35          36          37          38          39          40
           41          42          43          44          45          46          47          48          49          50
 ........................................................................................................................
   1  -1000.0     -1000.0     -1000.0     -1000.0     -1000.0     -1000.0     -1000.0     -1000.0     -1000.0     -1000.0    
      -1000.0     -1000.0     -1000.0     -1000.0     -1000.0     -1000.0     -1000.0     -1000.0     -1000.0     -1000.0    
      -1000.0     -1000.0     -1000.0     -1000.0     -1000.0     -1000.0     -1000.0     -1000.0     -1000.0     -1000.0    
      -1000.0     -1000.0     -1000.0     -1000.0     -1000.0     -1000.0     -1000.0     -1000.0     -1000.0     -1000.0    
      -1000.0     -1000.0     -1000.0     -1000.0     -1000.0     -1000.0     -1000.0     -1000.0     -1000.0       70.00    
   2  -1000.0     -1000.0     -1000.0     -1000.0     -1000.0     -1000.0     -1000.0       104.3       103.8       103.1    
        102.5       101.9       101.1       100.3       99.33       98.32       97.33       96.36       95.42       94.49    
        93.58       92.69       91.81       90.94       90.09       89.24       88.40       87.57       86.74       85.92    
        85.11       84.30       83.49       82.69       81.90       81.10       80.31       79.52       78.74       77.95    
        77.17       76.39       75.60       74.82       74.03       73.23       72.43       71.63       70.82       70.00    
   3  -1000.0     -1000.0     -1000.0     -1000.0     -1000.0     -1000.0       104.8       104.3       103.7       103.2    
        102.6       101.9       101.1       100.2       99.30       98.29       97.30       96.33       95.39       94.47    
        93.56       92.67       91.79       90.93       90.07       89.22       88.38       87.55       86.73       85.91    
        85.09       84.28       83.48       82.68       81.88       81.09       80.30       79.51       78.73       77.95    
        77.16       76.38       75.60       74.81       74.02       73.23       72.43       71.63       70.82       70.00    
   4  -1000.0     -1000.0     -1000.0     -1000.0     -1000.0       105.2       104.8       104.3       103.8       103.2    
        102.5       101.8       101.0       100.2       99.24       98.22       97.24       96.27       95.33       94.41    
        93.51       92.63       91.75       90.89       90.04       89.19       88.35       87.52       86.70       85.88    
        85.07       84.26       83.46       82.66       81.86       81.07       80.28       79.50       78.71       77.93    
        77.15       76.37       75.58       74.80       74.01       73.22       72.43       71.62       70.82       70.00    
   5  -1000.0     -1000.0     -1000.0     -1000.0       105.6       105.2       104.7       104.3       103.8       103.2    
        102.5       101.8       101.0       100.1       99.14       98.12       97.14       96.18       95.25       94.33    
        93.44       92.56       91.69       90.83       89.99       89.14       88.31       87.48       86.66       85.84    
        85.03       84.22       83.42       82.62       81.83       81.04       80.25       79.47       78.68       77.90    
        77.12       76.34       75.56       74.78       74.00       73.21       72.42       71.62       70.81       70.00    
   6  -1000.0     -1000.0     -1000.0       105.9       105.6       105.2       104.8       104.3       103.7       103.1    
        102.4       101.7       100.8       99.96       99.00       97.98       97.00       96.05       95.13       94.23    
        93.34       92.47       91.62       90.76       89.92       89.08       88.25       87.42       86.60       85.79    
        84.98       84.17       83.37       82.58       81.78       80.99       80.21       79.43       78.65       77.87    
        77.09       76.31       75.54       74.76       73.98       73.19       72.41       71.61       70.81       70.00    
   7  -1000.0     -1000.0       106.1       105.9       105.5       105.2       104.8       104.3       103.7       103.1    
        102.3       101.6       100.7       99.78       98.81       97.79       96.82       95.88       94.98       94.10    
        93.23       92.37       91.52       90.68       89.84       89.01       88.18       87.36       86.54       85.72    
        84.92       84.11       83.31       82.52       81.73       80.94       80.16       79.38       78.60       77.82    
        77.05       76.28       75.51       74.73       73.95       73.17       72.39       71.60       70.80       70.00    
   8  -1000.0       106.2       106.0       105.8       105.5       105.2       104.7       104.2       103.6       103.0    
        102.2       101.4       100.5       99.55       98.56       97.54       96.59       95.68       94.80       93.94    
        93.09       92.25       91.41       90.58       89.75       88.92       88.09       87.27       86.46       85.65    
        84.84       84.04       83.24       82.45       81.66       80.87       80.09       79.32       78.54       77.77    
        77.00       76.23       75.47       74.70       73.93       73.15       72.37       71.59       70.80       70.00    
   9  -1000.0       106.1       105.9       105.7       105.5       105.1       104.7       104.2       103.5       102.8    
        102.1       101.2       100.2       99.24       98.23       97.22       96.31       95.44       94.60       93.77    
        92.94       92.12       91.29       90.47       89.64       88.82       88.00       87.18       86.37       85.56    
        84.75       83.95       83.16       82.37       81.58       80.80       80.02       79.25       78.48       77.71    
        76.95       76.18       75.42       74.66       73.89       73.12       72.35       71.58       70.79       70.00    
  10  -1000.0       106.0       105.9       105.7       105.4       105.1       104.6       104.1       103.4       102.7    
        101.9       100.9       99.92       98.84       97.78       96.81       95.96       95.16       94.37       93.58    
        92.79       91.98       91.17       90.35       89.53       88.71       87.89       87.08       86.27       85.46    
        84.65       83.86       83.06       82.27       81.49       80.71       79.93       79.16       78.40       77.64    
        76.88       76.12       75.37       74.61       73.85       73.09       72.33       71.56       70.78       70.00    
  11  -1000.0       105.9       105.8       105.6       105.4       105.0       104.6       104.0       103.3       102.6    
        101.7       100.7       99.54       98.31       97.12       96.26       95.55       94.86       94.14       93.40    
        92.63       91.84       91.04       90.23       89.41       88.60       87.78       86.96       86.15       85.35    
        84.54       83.75       82.95       82.17       81.38       80.61       79.84       79.07       78.31       77.55    
        76.80       76.05       75.31       74.56       73.81       73.06       72.30       71.54       70.77       70.00    
  12  -1000.0       105.9       105.8       105.6       105.3       104.9       104.5       103.9       103.2       102.5    
        101.5       100.4       99.15       97.63       96.00       95.55       95.13       94.58       93.94       93.23    
        92.48       91.71       90.91       90.10       89.29       88.47       87.65       86.84       86.03       85.22    
        84.42       83.62       82.83       82.05       81.27       80.49       79.73       78.96       78.21       77.46    
        76.72       75.98       75.24       74.50       73.76       73.02       72.27       71.52       70.76       70.00    
  13  -1000.0       105.8       105.7       105.5       105.3       104.9       104.4       103.8       103.2       102.4    
        101.4       100.3       98.86       96.92       93.54       94.82       94.82       94.39       93.79       93.10    
        92.36       91.58       90.79       89.98       89.16       88.34       87.52       86.71       85.90       85.09    
        84.29       83.49       82.70       81.92       81.14       80.37       79.60       78.84       78.10       77.35    
        76.62       75.89       75.16       74.43       73.71       72.98       72.24       71.50       70.75       70.00    
  14  -1000.0       105.7       105.7       105.5       105.2       104.8       104.4       103.8       103.1       102.3    
        101.4       100.3       98.98       97.45       95.81       95.36       94.93       94.38       93.73       93.02    
        92.26       91.48       90.67       89.86       89.03       88.20       87.38       86.56       85.75       84.94    
        84.14       83.34       82.55       81.77       80.99       80.22       79.46       78.71       77.97       77.24    
        76.51       75.79       75.08       74.36       73.65       72.93       72.21       71.48       70.74       70.00    
  15  -1000.0       105.7       105.6       105.4       105.1       104.8       104.3       103.7       103.1       102.3    
        101.4       100.4       99.20       97.95       96.74       95.87       95.16       94.45       93.73       92.97    
        92.18       91.38       90.56       89.73       88.89       88.06       87.23       86.41       85.59       84.79    
        83.98       83.19       82.40       81.61       80.84       80.07       79.31       78.56       77.82       77.10    
        76.39       75.68       74.99       74.29       73.59       72.88       72.17       71.46       70.73       70.00    
  16  -1000.0       105.6       105.5       105.3       105.1       104.7       104.2       103.7       103.0       102.3    
        101.4       100.5       99.41       98.31       97.22       96.23       95.36       94.55       93.75       92.94    
        92.12       91.28       90.44       89.60       88.75       87.91       87.07       86.24       85.43       84.62    
        83.81       83.02       82.23       81.44       80.66       79.89       79.13       78.39       77.66       76.95    
        76.25       75.57       74.89       74.21       73.52       72.83       72.14       71.43       70.72       70.00    
  17  -1000.0       105.5       105.4       105.3       105.0       104.6       104.2       103.6       103.0       102.3    
        101.5       100.5       99.56       98.53       97.49       96.45       95.51       94.62       93.76       92.91    
        92.05       91.19       90.32       89.46       88.60       87.74       86.90       86.07       85.25       84.43    
        83.63       82.83       82.04       81.26       80.48       79.70       78.94       78.19       77.47       76.77    
        76.10       75.44       74.78       74.12       73.46       72.78       72.10       71.41       70.71       70.00    
  18  -1000.0       105.4       105.4       105.2       104.9       104.6       104.1       103.6       103.0       102.2    
        101.5       100.6       99.64       98.65       97.63       96.58       95.60       94.67       93.76       92.87    
        91.97       91.08       90.19       89.31       88.43       87.57       86.72       85.88       85.05       84.24    
        83.44       82.64       81.85       81.06       80.27       79.49       78.72       77.97       77.25       76.57    
        75.93       75.30       74.67       74.04       73.39       72.74       72.07       71.39       70.70       70.00    
  19  -1000.0       105.4       105.3       105.1       104.8       104.5       104.0       103.5       102.9       102.2    
        101.4       100.6       99.66       98.69       97.68       96.62       95.62       94.67       93.75       92.82    
        91.89       90.96       90.04       89.14       88.25       87.38       86.52       85.68       84.85       84.04    
        83.23       82.44       81.65       80.85       80.06       79.27       78.48       77.71       76.98       76.34    
        75.74       75.15       74.56       73.96       73.34       72.70       72.05       71.38       70.69       70.00    
  20  -1000.0       105.3       105.2       105.0       104.7       104.4       103.9       103.4       102.8       102.1    
        101.4       100.5       99.62       98.67       97.66       96.59       95.59       94.64       93.72       92.77    
        91.78       90.81       89.87       88.95       88.05       87.16       86.30       85.46       84.63       83.82    
        83.02       82.23       81.44       80.64       79.85       79.04       78.21       77.39       76.63       76.05    
        75.53       75.00       74.46       73.89       73.29       72.67       72.03       71.37       70.69       70.00    
  21  -1000.0       105.2       105.1       104.9       104.6       104.3       103.8       103.3       102.7       102.0    
        101.2       100.4       99.53       98.57       97.56       96.50       95.49       94.56       93.73       92.76    
        91.64       90.62       89.65       88.72       87.81       86.93       86.07       85.23       84.40       83.59    
        82.80       82.01       81.22       80.43       79.63       78.81       77.94       77.02       76.09       75.70    
        75.32       74.87       74.38       73.84       73.27       72.66       72.03       71.38       70.70       70.00    
  22  -1000.0       105.0       105.0       104.8       104.5       104.1       103.7       103.1       102.5       101.8    
        101.1       100.3       99.37       98.42       97.40       96.32       95.30       94.36       93.51       92.53    
        91.40       90.36       89.38       88.45       87.55       86.67       85.81       84.97       84.16       83.35    
        82.57       81.79       81.01       80.23       79.44       78.61       77.71       76.63       75.00       75.35    
        75.16       74.79       74.33       73.82       73.27       72.68       72.05       71.40       70.71       70.00    
  23  -1000.0       104.9       104.8       104.6       104.3       104.0       103.5       103.0       102.3       101.7    
        100.9       100.1       99.17       98.20       97.18       96.09       95.04       94.04       93.08       92.08    
        91.04       90.03       89.07       88.14       87.25       86.40       85.54       84.70       83.89       83.10    
        82.33       81.57       80.81       80.05       79.28       78.49       77.65       76.77       75.88       75.54    
        75.20       74.80       74.34       73.85       73.31       72.73       72.11       71.44       70.74       70.00    
  24  -1000.0       104.8       104.7       104.5       104.2       103.8       103.3       102.8       102.1       101.4    
        100.7       99.81       98.91       97.94       96.90       95.79       94.72       93.69       92.67       91.66    
        90.64       89.65       88.69       87.78       86.93       86.13       85.25       84.40       83.60       82.83    
        82.08       81.34       80.61       79.88       79.15       78.40       77.65       76.90       76.22       75.73    
        75.29       74.86       74.40       73.91       73.39       72.82       72.20       71.53       70.79       70.00    
  25  -1000.0       104.7       104.6       104.4       104.0       103.6       103.1       102.5       101.9       101.1    
        100.4       99.51       98.59       97.61       96.56       95.44       94.35       93.29       92.25       91.23    
        90.21       89.22       88.26       87.36       86.54       85.93       84.91       84.06       83.28       82.54    
        81.82       81.11       80.41       79.72       79.02       78.33       77.64       76.98       76.37       75.86    
        75.39       74.95       74.49       74.02       73.51       72.96       72.34       71.66       70.90       70.00    
  26  -1000.0       105.1       105.0       104.8       104.5       104.1       103.6       103.1       102.5       101.8    
        101.0       100.2       99.25       98.27       97.22       96.09       94.99       93.92       92.87       91.84    
        90.83       89.84       88.89       87.97       87.11       86.30       85.41       84.55       83.74       82.95    
        82.19       81.45       80.71       79.97       79.24       78.51       77.79       77.11       76.47       75.92    
        75.41       74.93       74.44       73.94       73.40       72.83       72.21       71.53       70.79       70.00    
  27  -1000.0       105.5       105.4       105.2       104.9       104.6       104.1       103.6       103.0       102.3    
        101.6       100.8       99.86       98.89       97.84       96.70       95.60       94.52       93.46       92.43    
        91.41       90.42       89.46       88.53       87.62       86.75       85.87       85.00       84.17       83.35    
        82.56       81.77       81.00       80.22       79.45       78.68       77.92       77.18       76.51       75.93    
        75.42       74.92       74.41       73.89       73.34       72.75       72.12       71.45       70.74       70.00    
  28  -1000.0       105.9       105.8       105.6       105.4       105.0       104.6       104.1       103.5       102.9    
        102.1       101.3       100.4       99.45       98.41       97.27       96.16       95.08       94.02       92.98    
        91.96       90.96       89.99       89.04       88.11       87.20       86.30       85.43       84.57       83.73    
        82.91       82.09       81.29       80.48       79.66       78.84       78.02       77.20       76.45       75.89    
        75.40       74.92       74.41       73.87       73.31       72.71       72.07       71.41       70.71       70.00    
  29  -1000.0       106.3       106.2       106.1       105.8       105.5       105.1       104.6       104.0       103.3    
        102.6       101.8       100.9       99.98       98.93       97.80       96.69       95.60       94.54       93.49    
        92.47       91.47       90.48       89.52       88.57       87.64       86.72       85.83       84.96       84.10    
        83.25       82.41       81.57       80.74       79.89       79.02       78.11       77.15       76.20       75.79    
        75.39       74.93       74.43       73.89       73.31       72.70       72.06       71.39       70.70       70.00    
  30  -1000.0       106.7       106.6       106.4       106.2       105.9       105.5       105.0       104.4       103.8    
        103.1       102.3       101.4       100.5       99.41       98.28       97.17       96.09       95.02       93.97    
        92.94       91.93       90.94       89.96       89.00       88.05       87.12       86.21       85.32       84.44    
        83.58       82.72       81.86       81.00       80.13       79.22       78.25       77.10       75.41       75.68    
        75.43       75.00       74.49       73.93       73.34       72.71       72.06       71.39       70.70       70.00    
  31  -1000.0       107.0       106.9       106.8       106.6       106.2       105.8       105.4       104.8       104.2    
        103.5       102.7       101.8       100.9       99.85       98.73       97.62       96.53       95.46       94.41    
        93.38       92.36       91.36       90.37       89.40       88.44       87.50       86.57       85.67       84.78    
        83.90       83.02       82.15       81.28       80.40       79.50       78.56       77.56       76.56       76.11    
        75.65       75.15       74.60       74.01       73.39       72.75       72.09       71.40       70.71       70.00    
  32  -1000.0       107.3       107.3       107.1       106.9       106.6       106.2       105.7       105.2       104.6    
        103.9       103.1       102.2       101.3       100.3       99.13       98.03       96.94       95.87       94.82    
        93.78       92.76       91.75       90.75       89.77       88.80       87.85       86.92       86.00       85.10    
        84.21       83.32       82.45       81.57       80.69       79.80       78.90       78.01       77.17       76.52    
        75.93       75.34       74.73       74.11       73.47       72.80       72.12       71.43       70.72       70.00    
  33  -1000.0       107.6       107.6       107.4       107.2       106.9       106.5       106.1       105.5       104.9    
        104.2       103.5       102.6       101.7       100.6       99.50       98.40       97.32       96.25       95.19    
        94.15       93.13       92.11       91.11       90.12       89.14       88.18       87.24       86.32       85.40    
        84.51       83.62       82.73       81.86       80.98       80.11       79.24       78.39       77.59       76.87    
        76.20       75.54       74.89       74.23       73.55       72.87       72.17       71.46       70.73       70.00    
  34  -1000.0       107.9       107.8       107.7       107.5       107.2       106.8       106.4       105.8       105.2    
        104.5       103.8       102.9       102.0       101.0       99.84       98.74       97.66       96.59       95.53    
        94.49       93.46       92.45       91.44       90.44       89.46       88.49       87.55       86.61       85.70    
        84.79       83.90       83.01       82.14       81.26       80.40       79.54       78.71       77.91       77.16    
        76.44       75.74       75.05       74.35       73.65       72.94       72.22       71.49       70.75       70.00    
  35  -1000.0       108.2       108.1       108.0       107.7       107.4       107.1       106.6       106.1       105.5    
        104.8       104.1       103.2       102.3       101.3       100.2       99.05       97.97       96.90       95.85    
        94.81       93.78       92.76       91.75       90.74       89.76       88.78       87.83       86.90       85.97    
        85.07       84.17       83.28       82.40       81.53       80.67       79.82       78.99       78.19       77.41    
        76.66       75.93       75.20       74.47       73.75       73.01       72.27       71.52       70.77       70.00    
  36  -1000.0       108.4       108.3       108.2       108.0       107.7       107.3       106.9       106.4       105.8    
        105.1       104.3       103.5       102.6       101.5       100.4       99.34       98.26       97.19       96.14    
        95.09       94.06       93.04       92.03       91.02       90.03       89.06       88.10       87.16       86.24    
        85.33       84.43       83.53       82.65       81.78       80.92       80.07       79.24       78.43       77.63    
        76.86       76.10       75.34       74.59       73.84       73.09       72.33       71.56       70.78       70.00    
  37  -1000.0       108.6       108.5       108.4       108.2       107.9       107.5       107.1       106.6       106.0    
        105.3       104.6       103.7       102.8       101.8       100.7       99.59       98.51       97.45       96.40    
        95.35       94.32       93.30       92.29       91.28       90.29       89.31       88.35       87.41       86.48    
        85.57       84.66       83.77       82.88       82.01       81.15       80.30       79.46       78.64       77.83    
        77.04       76.25       75.48       74.71       73.93       73.16       72.38       71.59       70.80       70.00    
  38  -1000.0       108.8       108.7       108.6       108.4       108.1       107.7       107.3       106.8       106.2    
        105.5       104.8       103.9       103.0       102.0       100.9       99.82       98.75       97.68       96.63    
        95.59       94.56       93.54       92.52       91.52       90.52       89.54       88.59       87.64       86.71    
        85.79       84.88       83.99       83.10       82.22       81.35       80.50       79.65       78.82       78.00    
        77.20       76.40       75.60       74.81       74.02       73.23       72.43       71.63       70.82       70.00    
  39  -1000.0       108.9       108.9       108.7       108.5       108.2       107.9       107.4       106.9       106.3    
        105.7       104.9       104.1       103.2       102.2       101.1       100.0       98.95       97.89       96.84    
        95.80       94.77       93.75       92.74       91.73       90.74       89.76       88.80       87.86       86.92    
        86.00       85.09       84.19       83.29       82.41       81.54       80.68       79.83       78.99       78.16    
        77.34       76.52       75.71       74.90       74.10       73.29       72.48       71.66       70.83       70.00    
  40  -1000.0       109.1       109.0       108.9       108.7       108.4       108.0       107.6       107.1       106.5    
        105.8       105.1       104.3       103.4       102.4       101.3       100.2       99.14       98.08       97.03    
        95.99       94.97       93.94       92.93       91.93       90.93       89.96       89.00       88.05       87.11    
        86.19       85.27       84.37       83.47       82.58       81.71       80.84       79.98       79.14       78.30    
        77.46       76.64       75.81       74.99       74.17       73.35       72.52       71.69       70.85       70.00    
  41  -1000.0       109.2       109.1       109.0       108.8       108.5       108.1       107.7       107.2       106.6    
        106.0       105.2       104.4       103.5       102.5       101.4       100.4       99.30       98.24       97.20    
        96.16       95.14       94.12       93.11       92.10       91.11       90.14       89.17       88.22       87.28    
        86.35       85.44       84.53       83.63       82.74       81.86       80.99       80.12       79.27       78.42    
        77.57       76.74       75.90       75.07       74.23       73.40       72.56       71.71       70.86       70.00    
  42  -1000.0       109.4       109.2       109.1       108.9       108.6       108.2       107.8       107.3       106.7    
        106.1       105.3       104.5       103.6       102.6       101.6       100.5       99.44       98.39       97.34    
        96.31       95.29       94.27       93.26       92.26       91.27       90.29       89.33       88.38       87.43    
        86.50       85.58       84.67       83.77       82.87       81.99       81.11       80.24       79.38       78.52    
        77.67       76.82       75.98       75.14       74.29       73.44       72.59       71.74       70.87       70.00    
  43  -1000.0       109.5       109.4       109.2       108.9       108.6       108.3       107.9       107.4       106.8    
        106.1       105.4       104.6       103.7       102.7       101.7       100.6       99.56       98.51       97.47    
        96.44       95.42       94.40       93.39       92.40       91.41       90.43       89.46       88.51       87.57    
        86.63       85.71       84.80       83.89       82.99       82.10       81.22       80.35       79.48       78.62    
        77.76       76.90       76.05       75.19       74.34       73.48       72.62       71.76       70.88       70.00    
  44  -1000.0     -1000.0       109.5       109.3       109.0       108.7       108.3       107.9       107.4       106.9    
        106.2       105.5       104.7       103.8       102.8       101.8       100.7       99.66       98.61       97.58    
        96.55       95.53       94.51       93.51       92.51       91.52       90.55       89.58       88.62       87.68    
        86.74       85.82       84.90       83.99       83.09       82.20       81.31       80.44       79.56       78.69    
        77.83       76.97       76.11       75.24       74.38       73.52       72.65       71.78       70.89       70.00    
  45  -1000.0     -1000.0     -1000.0       109.3       109.1       108.7       108.3       107.9       107.4       106.9    
        106.3       105.5       104.8       103.9       102.9       101.8       100.8       99.74       98.70       97.66    
        96.64       95.62       94.60       93.60       92.61       91.62       90.64       89.68       88.72       87.77    
        86.84       85.91       84.99       84.08       83.18       82.28       81.39       80.51       79.63       78.76    
        77.89       77.02       76.15       75.29       74.42       73.55       72.67       71.79       70.90       70.00    
  46  -1000.0     -1000.0     -1000.0     -1000.0       109.1       108.8       108.3       107.9       107.5       106.9    
        106.3       105.6       104.8       103.9       103.0       101.9       100.9       99.81       98.77       97.73    
        96.71       95.69       94.68       93.68       92.68       91.69       90.72       89.75       88.80       87.85    
        86.91       85.98       85.06       84.15       83.24       82.34       81.45       80.57       79.68       78.81    
        77.93       77.06       76.19       75.32       74.45       73.57       72.69       71.80       70.91       70.00    
  47  -1000.0     -1000.0     -1000.0     -1000.0     -1000.0       108.8       108.4       107.9       107.4       106.9    
        106.3       105.6       104.8       104.0       103.0       101.9       100.9       99.85       98.82       97.79    
        96.76       95.74       94.73       93.73       92.74       91.75       90.78       89.81       88.85       87.91    
        86.97       86.04       85.11       84.20       83.29       82.39       81.50       80.61       79.73       78.85    
        77.97       77.09       76.22       75.34       74.47       73.59       72.70       71.81       70.91       70.00    
  48  -1000.0     -1000.0     -1000.0     -1000.0     -1000.0     -1000.0       108.4       108.0       107.4       106.9    
        106.3       105.6       104.8       104.0       103.0       102.0       100.9       99.89       98.85       97.82    
        96.80       95.78       94.77       93.77       92.78       91.79       90.81       89.85       88.89       87.94    
        87.00       86.07       85.15       84.23       83.33       82.42       81.53       80.64       79.75       78.87    
        77.99       77.11       76.24       75.36       74.48       73.60       72.71       71.82       70.91       70.00    
  49  -1000.0     -1000.0     -1000.0     -1000.0     -1000.0     -1000.0     -1000.0       108.0       107.4       106.8    
        106.3       105.6       104.8       104.0       103.0       102.0       100.9       99.90       98.87       97.84    
        96.81       95.80       94.79       93.79       92.79       91.81       90.83       89.87       88.91       87.96    
        87.02       86.09       85.17       84.25       83.34       82.44       81.54       80.65       79.77       78.88    
        78.00       77.12       76.25       75.37       74.49       73.60       72.71       71.82       70.91       70.00    
  50  -1000.0     -1000.0     -1000.0     -1000.0     -1000.0     -1000.0     -1000.0     -1000.0     -1000.0     -1000.0    
      -1000.0     -1000.0     -1000.0     -1000.0     -1000.0     -1000.0     -1000.0     -1000.0     -1000.0     -1000.0    
      -1000.0     -1000.0     -1000.0     -1000.0     -1000.0     -1000.0     -1000.0     -1000.0     -1000.0     -1000.0    
      -1000.0     -1000.0     -1000.0     -1000.0     -1000.0     -1000.0     -1000.0     -1000.0     -1000.0     -1000.0    
      -1000.0     -1000.0     -1000.0     -1000.0     -1000.0     -1000.0     -1000.0     -1000.0     -1000.0       70.00    
1
              HEAD IN LAYER   3 AT END OF TIME STEP   1 IN STRESS PERIOD    1
  ---------------------------------------------------------------------------

            1           2           3           4           5           6           7           8           9          10
           11          12          13          14          15          16          17          18          19          20
           21          22          23          24          25          26          27          28          29          30
[...]
        91.04       90.03       89.07       88.14       87.25       86.40       85.54       84.70       83.89       83.10    
        82.33       81.57       80.81       80.05       79.28       78.49       77.65       76.77       75.88       75.54    
        75.20       74.80       74.34       73.85       73.31       72.73       72.11       71.44       70.74       70.00    
  24  -1000.0       104.8       104.7       104.5       104.2       103.8       103.3       102.8       102.1       101.4    
        100.6       99.81       98.91       97.94       96.90       95.79       94.72       93.69       92.67       91.66    
        90.64       89.65       88.69       87.78       86.93       86.13       85.25       84.40       83.60       82.83    
        82.08       81.34       80.61       79.88       79.15       78.40       77.65       76.90       76.22       75.73    
        75.29       74.86       74.40       73.91       73.39       72.82       72.20       71.53       70.79       70.00    
  25  -1000.0       104.7       104.6       104.4       104.0       103.6       103.1       102.5       101.9       101.1    
        100.4       99.51       98.59       97.61       96.56       95.44       94.35       93.29       92.26       91.23    
        90.23       89.23       88.28       87.37       86.55       85.94       84.92       84.07       83.29       82.55    
        81.83       81.12       80.42       79.72       79.03       78.33       77.64       76.98       76.37       75.86    
        75.39       74.94       74.49       74.01       73.51       72.95       72.34       71.66       70.90       70.00    
  26  -1000.0       105.1       105.0       104.8       104.5       104.1       103.6       103.1       102.5       101.8    
        101.0       100.2       99.25       98.27       97.22       96.09       94.99       93.92       92.87       91.84    
        90.83       89.84       88.89       87.97       87.11       86.30       85.41       84.55       83.74       82.95    
        82.19       81.45       80.71       79.97       79.24       78.51       77.79       77.11       76.47       75.92    
        75.41       74.93       74.44       73.94       73.40       72.83       72.21       71.53       70.79       70.00    
  27  -1000.0       105.5       105.4       105.2       104.9       104.6       104.1       103.6       103.0       102.3    
        101.6       100.8       99.86       98.89       97.84       96.70       95.60       94.52       93.46       92.43    
        91.41       90.42       89.46       88.53       87.62       86.75       85.87       85.00       84.17       83.35    
        82.56       81.77       81.00       80.22       79.45       78.68       77.92       77.18       76.51       75.93    
        75.42       74.92       74.41       73.89       73.34       72.75       72.12       71.45       70.74       70.00    
  28  -1000.0       105.9       105.8       105.6       105.4       105.0       104.6       104.1       103.5       102.9    
        102.1       101.3       100.4       99.45       98.41       97.27       96.16       95.08       94.02       92.98    
        91.96       90.96       89.99       89.04       88.11       87.20       86.30       85.43       84.57       83.73    
        82.91       82.09       81.29       80.48       79.66       78.84       78.02       77.20       76.45       75.89    
        75.40       74.92       74.41       73.87       73.31       72.71       72.07       71.41       70.71       70.00    
  29  -1000.0       106.3       106.2       106.1       105.8       105.5       105.1       104.6       104.0       103.3    
        102.6       101.8       100.9       99.98       98.93       97.80       96.69       95.60       94.54       93.49    
        92.47       91.46       90.48       89.52       88.57       87.64       86.72       85.83       84.96       84.10    
        83.25       82.41       81.57       80.74       79.89       79.02       78.11       77.15       76.20       75.79    
        75.39       74.93       74.43       73.89       73.31       72.70       72.06       71.39       70.70       70.00    
  30  -1000.0       106.7       106.6       106.4       106.2       105.9       105.5       105.0       104.4       103.8    
        103.1       102.3       101.4       100.5       99.41       98.28       97.17       96.09       95.02       93.97    
        92.94       91.93       90.94       89.96       89.00       88.05       87.12       86.21       85.32       84.44    
        83.58       82.72       81.86       81.00       80.13       79.22       78.25       77.10       75.37       75.68    
        75.43       75.00       74.49       73.93       73.34       72.71       72.06       71.39       70.70       70.00    
  31  -1000.0       107.0       106.9       106.8       106.6       106.2       105.8       105.4       104.8       104.2    
        103.5       102.7       101.8       100.9       99.85       98.73       97.62       96.53       95.46       94.41    
        93.38       92.36       91.36       90.37       89.40       88.44       87.50       86.57       85.67       84.78    
        83.90       83.02       82.15       81.28       80.40       79.50       78.55       77.56       76.56       76.11    
        75.65       75.15       74.60       74.01       73.39       72.75       72.09       71.40       70.71       70.00    
  32  -1000.0       107.3       107.3       107.1       106.9       106.6       106.2       105.7       105.2       104.6    
        103.9       103.1       102.2       101.3       100.3       99.13       98.03       96.94       95.87       94.82    
        93.78       92.76       91.75       90.75       89.77       88.80       87.85       86.92       86.00       85.10    
        84.21       83.32       82.45       81.57       80.69       79.80       78.90       78.01       77.17       76.52    
        75.93       75.34       74.73       74.11       73.46       72.80       72.12       71.43       70.72       70.00    
  33  -1000.0       107.6       107.6       107.4       107.2       106.9       106.5       106.1       105.5       104.9    
        104.2       103.5       102.6       101.7       100.6       99.50       98.40       97.32       96.25       95.19    
        94.15       93.13       92.11       91.11       90.12       89.14       88.18       87.24       86.32       85.40    
        84.51       83.62       82.73       81.86       80.98       80.11       79.24       78.39       77.59       76.87    
        76.20       75.54       74.89       74.23       73.55       72.87       72.17       71.46       70.73       70.00    
  34  -1000.0       107.9       107.8       107.7       107.5       107.2       106.8       106.4       105.8       105.2    
        104.5       103.8       102.9       102.0       101.0       99.84       98.74       97.66       96.59       95.53    
        94.49       93.46       92.45       91.44       90.44       89.46       88.49       87.55       86.61       85.70    
        84.79       83.90       83.01       82.14       81.26       80.40       79.54       78.71       77.91       77.16    
        76.44       75.74       75.05       74.35       73.65       72.94       72.22       71.49       70.75       70.00    
  35  -1000.0       108.2       108.1       108.0       107.7       107.4       107.1       106.6       106.1       105.5    
        104.8       104.1       103.2       102.3       101.3       100.2       99.05       97.97       96.90       95.85    
        94.81       93.78       92.76       91.75       90.74       89.75       88.78       87.83       86.90       85.97    
        85.07       84.17       83.28       82.40       81.53       80.67       79.82       78.99       78.19       77.41    
        76.66       75.93       75.20       74.47       73.75       73.01       72.27       71.52       70.77       70.00    
  36  -1000.0       108.4       108.3       108.2       108.0       107.7       107.3       106.9       106.4       105.8    
        105.1       104.3       103.5       102.6       101.5       100.4       99.34       98.26       97.19       96.14    
        95.09       94.06       93.04       92.03       91.02       90.03       89.06       88.10       87.16       86.24    
        85.33       84.43       83.53       82.65       81.78       80.92       80.07       79.24       78.43       77.63    
        76.86       76.10       75.34       74.59       73.84       73.09       72.33       71.56       70.78       70.00    
  37  -1000.0       108.6       108.5       108.4       108.2       107.9       107.5       107.1       106.6       106.0    
        105.3       104.6       103.7       102.8       101.8       100.7       99.59       98.51       97.45       96.40    
        95.35       94.32       93.30       92.29       91.28       90.29       89.31       88.35       87.41       86.48    
        85.57       84.66       83.77       82.88       82.01       81.15       80.30       79.46       78.64       77.83    
        77.04       76.25       75.48       74.71       73.93       73.16       72.38       71.59       70.80       70.00    
  38  -1000.0       108.8       108.7       108.6       108.4       108.1       107.7       107.3       106.8       106.2    
        105.5       104.8       103.9       103.0       102.0       100.9       99.82       98.75       97.68       96.63    
        95.59       94.56       93.54       92.52       91.52       90.52       89.54       88.58       87.64       86.71    
        85.79       84.88       83.99       83.10       82.22       81.35       80.50       79.65       78.82       78.00    
        77.20       76.40       75.60       74.81       74.02       73.23       72.43       71.63       70.82       70.00    
  39  -1000.0       108.9       108.9       108.7       108.5       108.2       107.9       107.4       106.9       106.3    
        105.7       104.9       104.1       103.2       102.2       101.1       100.0       98.95       97.89       96.84    
        95.80       94.77       93.75       92.74       91.73       90.74       89.76       88.80       87.86       86.92    
        86.00       85.09       84.19       83.29       82.41       81.54       80.68       79.83       78.99       78.16    
        77.34       76.52       75.71       74.90       74.10       73.29       72.48       71.66       70.83       70.00    
  40  -1000.0       109.1       109.0       108.9       108.7       108.4       108.0       107.6       107.1       106.5    
        105.8       105.1       104.3       103.4       102.4       101.3       100.2       99.14       98.08       97.03    
        95.99       94.97       93.94       92.93       91.93       90.93       89.96       89.00       88.05       87.11    
        86.19       85.27       84.37       83.47       82.58       81.71       80.84       79.98       79.14       78.30    
        77.46       76.64       75.81       74.99       74.17       73.35       72.52       71.69       70.85       70.00    
  41  -1000.0       109.2       109.1       109.0       108.8       108.5       108.1       107.7       107.2       106.6    
        106.0       105.2       104.4       103.5       102.5       101.4       100.4       99.30       98.24       97.20    
        96.16       95.14       94.12       93.11       92.10       91.11       90.14       89.17       88.22       87.28    
        86.35       85.44       84.53       83.63       82.74       81.86       80.99       80.12       79.27       78.42    
        77.57       76.74       75.90       75.07       74.23       73.40       72.56       71.71       70.86       70.00    
  42  -1000.0     -1000.0       109.2       109.1       108.9       108.6       108.2       107.8       107.3       106.7    
        106.1       105.3       104.5       103.6       102.6       101.6       100.5       99.44       98.39       97.34    
        96.31       95.29       94.27       93.26       92.26       91.27       90.29       89.33       88.38       87.43    
        86.50       85.58       84.67       83.77       82.87       81.99       81.11       80.24       79.38       78.52    
        77.67       76.82       75.98       75.14       74.29       73.44       72.59       71.74       70.87       70.00    
  43  -1000.0     -1000.0     -1000.0       109.2       108.9       108.6       108.3       107.9       107.4       106.8    
        106.1       105.4       104.6       103.7       102.7       101.7       100.6       99.56       98.51       97.47    
        96.44       95.42       94.40       93.39       92.40       91.41       90.43       89.46       88.51       87.57    
        86.63       85.71       84.80       83.89       82.99       82.10       81.22       80.35       79.48       78.61    
        77.76       76.90       76.05       75.19       74.34       73.48       72.62       71.76       70.88       70.00    
  44  -1000.0     -1000.0     -1000.0     -1000.0       109.0       108.7       108.3       107.9       107.4       106.9    
        106.2       105.5       104.7       103.8       102.8       101.8       100.7       99.66       98.61       97.58    
        96.55       95.53       94.51       93.51       92.51       91.52       90.55       89.58       88.62       87.68    
        86.74       85.82       84.90       83.99       83.09       82.20       81.31       80.43       79.56       78.69    
        77.83       76.97       76.11       75.24       74.38       73.52       72.65       71.77       70.89       70.00    
  45  -1000.0     -1000.0     -1000.0     -1000.0     -1000.0       108.7       108.3       107.9       107.4       106.9    
        106.3       105.5       104.8       103.9       102.9       101.8       100.8       99.74       98.70       97.66    
        96.64       95.62       94.60       93.60       92.61       91.62       90.64       89.68       88.72       87.77    
        86.84       85.91       84.99       84.08       83.18       82.28       81.39       80.51       79.63       78.76    
        77.89       77.02       76.15       75.29       74.42       73.55       72.67       71.79       70.90       70.00    
  46  -1000.0     -1000.0     -1000.0     -1000.0     -1000.0     -1000.0       108.3       107.9       107.5       106.9    
        106.3       105.6       104.8       103.9       103.0       101.9       100.9       99.81       98.77       97.73    
        96.71       95.69       94.68       93.68       92.68       91.69       90.72       89.75       88.80       87.85    
        86.91       85.98       85.06       84.15       83.24       82.34       81.45       80.57       79.68       78.81    
        77.93       77.06       76.19       75.32       74.45       73.57       72.69       71.80       70.91       70.00    
  47  -1000.0     -1000.0     -1000.0     -1000.0     -1000.0     -1000.0     -1000.0       107.9       107.4       106.9    
        106.3       105.6       104.8       104.0       103.0       101.9       100.9       99.85       98.82       97.79    
        96.76       95.74       94.73       93.73       92.74       91.75       90.78       89.81       88.85       87.90    
        86.97       86.04       85.11       84.20       83.29       82.39       81.50       80.61       79.73       78.85    
        77.97       77.09       76.22       75.34       74.47       73.59       72.70       71.81       70.91       70.00    
  48  -1000.0     -1000.0     -1000.0     -1000.0     -1000.0     -1000.0     -1000.0     -1000.0       107.4       106.9    
        106.3       105.6       104.8       104.0       103.0       102.0       100.9       99.89       98.85       97.82    
        96.80       95.78       94.77       93.77       92.78       91.79       90.81       89.85       88.89       87.94    
        87.00       86.07       85.15       84.23       83.33       82.42       81.53       80.64       79.75       78.87    
        77.99       77.11       76.24       75.36       74.48       73.60       72.71       71.82       70.91       70.00    
  49  -1000.0     -1000.0     -1000.0     -1000.0     -1000.0     -1000.0     -1000.0     -1000.0     -1000.0       106.8    
        106.3       105.6       104.8       104.0       103.0       102.0       100.9       99.90       98.87       97.84    
        96.81       95.80       94.79       93.79       92.79       91.81       90.83       89.87       88.91       87.96    
        87.02       86.09       85.17       84.25       83.34       82.44       81.54       80.65       79.77       78.88    
        78.00       77.12       76.25       75.37       74.49       73.60       72.71       71.82       70.91       70.00    
  50  -1000.0     -1000.0     -1000.0     -1000.0     -1000.0     -1000.0     -1000.0     -1000.0     -1000.0     -1000.0    
      -1000.0     -1000.0     -1000.0     -1000.0     -1000.0     -1000.0     -1000.0     -1000.0     -1000.0     -1000.0    
      -1000.0     -1000.0     -1000.0     -1000.0     -1000.0     -1000.0     -1000.0     -1000.0     -1000.0     -1000.0    
      -1000.0     -1000.0     -1000.0     -1000.0     -1000.0     -1000.0     -1000.0     -1000.0     -1000.0     -1000.0    
      -1000.0     -1000.0     -1000.0     -1000.0     -1000.0     -1000.0     -1000.0     -1000.0     -1000.0       70.00    

 HEAD WILL BE SAVED ON UNIT   51 AT END OF TIME STEP    1, STRESS PERIOD    1

 DRAWDOWN WILL BE SAVED ON UNIT   52 AT END OF TIME STEP    1, STRESS PERIOD    1
1
  VOLUMETRIC BUDGET FOR ENTIRE MODEL AT END OF TIME STEP    1, STRESS PERIOD   1
  ------------------------------------------------------------------------------

     CUMULATIVE VOLUMES      L**3       RATES FOR THIS TIME STEP      L**3/T
     ------------------                 ------------------------

           IN:                                      IN:
           ---                                      ---
             STORAGE =           0.0000               STORAGE =           0.0000
       CONSTANT HEAD =           0.0000         CONSTANT HEAD =           0.0000
               WELLS =         375.0000                 WELLS =         375.0000
       RIVER LEAKAGE =         811.0073         RIVER LEAKAGE =         811.0073
                  ET =           0.0000                    ET =           0.0000
            RECHARGE =       33199.9961              RECHARGE =       33199.9961

            TOTAL IN =       34386.0039              TOTAL IN =       34386.0039

          OUT:                                     OUT:
          ----                                     ----
             STORAGE =           0.0000               STORAGE =           0.0000
       CONSTANT HEAD =       13317.4727         CONSTANT HEAD =       13317.4727
               WELLS =        7500.0000                 WELLS =        7500.0000
       RIVER LEAKAGE =       12607.6035         RIVER LEAKAGE =       12607.6035
                  ET =         960.9108                    ET =         960.9108
            RECHARGE =           0.0000              RECHARGE =           0.0000

           TOTAL OUT =       34385.9883             TOTAL OUT =       34385.9883

            IN - OUT =       1.5625E-02              IN - OUT =       1.5625E-02

 PERCENT DISCREPANCY =           0.00     PERCENT DISCREPANCY =           0.00






         TIME SUMMARY AT END OF TIME STEP    1 IN STRESS PERIOD    1
                    SECONDS     MINUTES      HOURS       DAYS        YEARS
                    -----------------------------------------------------------
   TIME STEP LENGTH  86400.      1440.0      24.000      1.0000     2.73785E-03
 STRESS PERIOD TIME  86400.      1440.0      24.000      1.0000     2.73785E-03
         TOTAL TIME  86400.      1440.0      24.000      1.0000     2.73785E-03
1

 Run end date and time (yyyy/mm/dd hh:mm:ss): 2026/02/25  7:15:47
 Elapsed run time: 16.890 Seconds

