                                  MODFLOW-2005     
      U.S. GEOLOGICAL SURVEY MODULAR FINITE-DIFFERENCE GROUND-WATER FLOW MODEL
                            VERSION 1.12.00 2/3/2017

 LIST FILE: static_ensemble_S1bc_1113111.list
                         UNIT    2

 OPENING static_ensemble_S1bc_1113111.dis
 FILE TYPE:DIS   UNIT   11   STATUS:OLD    
 FORMAT:FORMATTED              ACCESS:SEQUENTIAL          

 OPENING static_ensemble_S1bc_1113111.bas
 FILE TYPE:BAS6   UNIT   13   STATUS:OLD    
 FORMAT:FORMATTED              ACCESS:SEQUENTIAL          

 OPENING static_ensemble_S1bc_1113111.lpf
 FILE TYPE:LPF   UNIT   15   STATUS:OLD    
 FORMAT:FORMATTED              ACCESS:SEQUENTIAL          

 OPENING static_ensemble_S1bc_1113111.evt
 FILE TYPE:EVT   UNIT   22   STATUS:OLD    
 FORMAT:FORMATTED              ACCESS:SEQUENTIAL          

 OPENING static_ensemble_S1bc_1113111.rch
 FILE TYPE:RCH   UNIT   19   STATUS:OLD    
 FORMAT:FORMATTED              ACCESS:SEQUENTIAL          

 OPENING static_ensemble_S1bc_1113111.riv
 FILE TYPE:RIV   UNIT   18   STATUS:OLD    
 FORMAT:FORMATTED              ACCESS:SEQUENTIAL          

 OPENING static_ensemble_S1bc_1113111.wel
 FILE TYPE:WEL   UNIT   20   STATUS:OLD    
 FORMAT:FORMATTED              ACCESS:SEQUENTIAL          

 OPENING static_ensemble_S1bc_1113111.oc
 FILE TYPE:OC   UNIT   14   STATUS:OLD    
 FORMAT:FORMATTED              ACCESS:SEQUENTIAL          

 OPENING static_ensemble_S1bc_1113111.pcg
 FILE TYPE:PCG   UNIT   27   STATUS:OLD    
 FORMAT:FORMATTED              ACCESS:SEQUENTIAL          

 OPENING static_ensemble_S1bc_1113111.cbc
 FILE TYPE:DATA(BINARY)   UNIT   53   STATUS:REPLACE
 FORMAT:UNFORMATTED            ACCESS:STREAM              

 OPENING static_ensemble_S1bc_1113111.hds
 FILE TYPE:DATA(BINARY)   UNIT   51   STATUS:REPLACE
 FORMAT:UNFORMATTED            ACCESS:STREAM              

 OPENING static_ensemble_S1bc_1113111.ddn
 FILE TYPE:DATA(BINARY)   UNIT   52   STATUS:REPLACE
 FORMAT:UNFORMATTED            ACCESS:STREAM              

 BAS -- BASIC PACKAGE, VERSION 7, 5/2/2005 INPUT READ FROM UNIT   13
 
 MODFLOW was compiled using mixed precision
 Precision of REAL variables:           6
 Precision of DOUBLE PRECISION variables:          15

 DISCRETIZATION INPUT DATA READ FROM UNIT   11
 # DIS package for MODFLOW-2005 generated by Flopy 3.10.0
    3 LAYERS        50 ROWS        50 COLUMNS
    1 STRESS PERIOD(S) IN SIMULATION
 MODEL TIME UNIT IS DAYS
 MODEL LENGTH UNIT IS METERS
  Confining bed flag for each layer:
   0   0   0

                     DELR =   1000.00    

                     DELC =   1000.00    



           TOP ELEVATION OF LAYER 1
 READING ON UNIT   11 WITH FORMAT: (50E15.6)           



             MODEL LAYER BOTTOM EL. FOR LAYER   1
 READING ON UNIT   11 WITH FORMAT: (50E15.6)           



             MODEL LAYER BOTTOM EL. FOR LAYER   2
 READING ON UNIT   11 WITH FORMAT: (50E15.6)           



             MODEL LAYER BOTTOM EL. FOR LAYER   3
 READING ON UNIT   11 WITH FORMAT: (50E15.6)           


 STRESS PERIOD     LENGTH       TIME STEPS     MULTIPLIER FOR DELT    SS FLAG
 ----------------------------------------------------------------------------
        1         1.000000          1                    1.000         SS

 STEADY-STATE SIMULATION



 
 # BAS6 package for MODFLOW-2005 generated by Flopy 3.10.0                       
 THE FREE FORMAT OPTION HAS BEEN SELECTED



                     BOUNDARY ARRAY FOR LAYER   1
 READING ON UNIT   13 WITH FORMAT: (50I10)             



                     BOUNDARY ARRAY FOR LAYER   2
 READING ON UNIT   13 WITH FORMAT: (50I10)             



                     BOUNDARY ARRAY FOR LAYER   3
 READING ON UNIT   13 WITH FORMAT: (50I10)             

 AQUIFER HEAD WILL BE SET TO  -999.99     AT ALL NO-FLOW NODES (IBOUND=0).



                       INITIAL HEAD FOR LAYER   1
 READING ON UNIT   13 WITH FORMAT: (50E15.6)           



                       INITIAL HEAD FOR LAYER   2
 READING ON UNIT   13 WITH FORMAT: (50E15.6)           



                       INITIAL HEAD FOR LAYER   3
 READING ON UNIT   13 WITH FORMAT: (50E15.6)           
 # OC package for MODFLOW-2005 generated by Flopy 3.10.0

 OUTPUT CONTROL IS SPECIFIED ONLY AT TIME STEPS FOR WHICH OUTPUT IS DESIRED
 COMPACT CELL-BY-CELL BUDGET FILES WILL BE WRITTEN
 AUXILIARY DATA WILL BE SAVED IN CELL-BY-CELL BUDGET FILES
 HEAD PRINT FORMAT CODE IS   0    DRAWDOWN PRINT FORMAT CODE IS   0
 HEADS WILL BE SAVED ON UNIT   51    DRAWDOWNS WILL BE SAVED ON UNIT   52

 LPF -- LAYER-PROPERTY FLOW PACKAGE, VERSION 7, 5/2/2005
         INPUT READ FROM UNIT   15
 # LPF package for MODFLOW-2005 generated by Flopy 3.10.0
 CELL-BY-CELL FLOWS WILL BE SAVED ON UNIT   53
 HEAD AT CELLS THAT CONVERT TO DRY= -1.00000E+30
 No named parameters
 STORAGECOEFFICIENT OPTION:
 Read storage coefficient rather than specific storage

   LAYER FLAGS:
 LAYER       LAYTYP        LAYAVG         CHANI        LAYVKA        LAYWET
 ---------------------------------------------------------------------------
    1             1             0     1.000E+00             0             0
    2             1             0     1.000E+00             0             0
    3             1             0     1.000E+00             0             0

   INTERPRETATION OF LAYER FLAGS:
                        INTERBLOCK     HORIZONTAL    DATA IN
         LAYER TYPE   TRANSMISSIVITY   ANISOTROPY   ARRAY VKA   WETTABILITY
 LAYER      (LAYTYP)      (LAYAVG)       (CHANI)      (LAYVKA)      (LAYWET)
 ---------------------------------------------------------------------------
    1   CONVERTIBLE      HARMONIC     1.000E+00    VERTICAL K  NON-WETTABLE
    2   CONVERTIBLE      HARMONIC     1.000E+00    VERTICAL K  NON-WETTABLE
    3   CONVERTIBLE      HARMONIC     1.000E+00    VERTICAL K  NON-WETTABLE

 WETTING CAPABILITY IS NOT ACTIVE IN ANY LAYER



              HYD. COND. ALONG ROWS FOR LAYER   1
 READING ON UNIT   15 WITH FORMAT: (50E15.6)           



                VERTICAL HYD. COND. FOR LAYER   1
 READING ON UNIT   15 WITH FORMAT: (50E15.6)           



              HYD. COND. ALONG ROWS FOR LAYER   2
 READING ON UNIT   15 WITH FORMAT: (50E15.6)           



                VERTICAL HYD. COND. FOR LAYER   2
 READING ON UNIT   15 WITH FORMAT: (50E15.6)           



              HYD. COND. ALONG ROWS FOR LAYER   3
 READING ON UNIT   15 WITH FORMAT: (50E15.6)           



                VERTICAL HYD. COND. FOR LAYER   3
 READING ON UNIT   15 WITH FORMAT: (50E15.6)           

 WEL -- WELL PACKAGE, VERSION 7, 5/2/2005 INPUT READ FROM UNIT   20
 # WEL package for MODFLOW-2005 generated by Flopy 3.10.0
 No named parameters
 MAXIMUM OF      3 ACTIVE WELLS AT ONE TIME


     0 Well parameters

 RIV -- RIVER PACKAGE, VERSION 7, 5/2/2005 INPUT READ FROM UNIT   18
 # RIV package for MODFLOW-2005 generated by Flopy 3.10.0
 No named parameters
 MAXIMUM OF     49 ACTIVE RIVER REACHES AT ONE TIME
 CELL-BY-CELL FLOWS WILL BE SAVED ON UNIT   53


     0 River parameters

 EVT -- EVAPOTRANSPIRATION PACKAGE, VERSION 7, 5/2/2005
         INPUT READ FROM UNIT   22
 # EVT package for MODFLOW-2005 generated by Flopy 3.10.0
 No named parameters
 OPTION 3 -- EVAPOTRANSPIRATION FROM HIGHEST ACTIVE NODE IN EACH VERTICAL COLUMN
 CELL-BY-CELL FLOWS WILL BE SAVED ON UNIT   53


     0 Evapotranspiration parameters

 RCH -- RECHARGE PACKAGE, VERSION 7, 5/2/2005 INPUT READ FROM UNIT   19
 # RCH package for MODFLOW-2005 generated by Flopy 3.10.0
 No named parameters
 OPTION 3 -- RECHARGE TO HIGHEST ACTIVE NODE IN EACH VERTICAL COLUMN
 CELL-BY-CELL FLOWS WILL BE SAVED ON UNIT   53


     0 Recharge parameters

 PCG -- CONJUGATE-GRADIENT SOLUTION PACKAGE, VERSION 7, 5/2/2005
 # PCG package for MODFLOW-2005 generated by Flopy 3.10.0
 MAXIMUM OF   5000 CALLS OF SOLUTION ROUTINE
 MAXIMUM OF    500 INTERNAL ITERATIONS PER CALL TO SOLUTION ROUTINE
 MATRIX PRECONDITIONING TYPE :    1



                                    SOLUTION BY THE CONJUGATE-GRADIENT METHOD
                                   -------------------------------------------
                    MAXIMUM NUMBER OF CALLS TO PCG ROUTINE =     5000
                        MAXIMUM ITERATIONS PER CALL TO PCG =      500
                               MATRIX PRECONDITIONING TYPE =        1
        RELAXATION FACTOR (ONLY USED WITH PRECOND. TYPE 1) =    0.97000E+00
 PARAMETER OF POLYNOMIAL PRECOND. = 2 (2) OR IS CALCULATED :        0
                         HEAD CHANGE CRITERION FOR CLOSURE =    0.10000E-04
                     RESIDUAL CHANGE CRITERION FOR CLOSURE =    0.10000E-04
            PCG HEAD AND RESIDUAL CHANGE PRINTOUT INTERVAL =      999
     PRINTING FROM SOLVER IS LIMITED(1) OR SUPPRESSED (>1) =        3
                            STEADY-STATE DAMPING PARAMETER =    0.10000E-01
                               TRANSIENT DAMPING PARAMETER =    0.10000E-01
1
                            STRESS PERIOD NO.    1, LENGTH =   1.000000    
                            -----------------------------------------------

                              NUMBER OF TIME STEPS =     1

                               MULTIPLIER FOR DELT =     1.000

                            INITIAL TIME STEP SIZE =   1.000000    

 WELL NO.  LAYER   ROW   COL   STRESS RATE         
 --------------------------------------------------
      1      3     22     39      -1500.    
      2      1     13     15      -4500.    
      3      1     25     26       375.0    

      3 WELLS

 REACH NO.  LAYER   ROW   COL     STAGE      CONDUCTANCE     BOTTOM EL.         
 -------------------------------------------------------------------------------
      1      1     25      2       100.5           50.00           98.00    
      2      1     25      3       99.50           50.00           97.00    
      3      1     25      4       98.50           50.00           96.00    
      4      1     25      5       97.50           50.00           95.00    
      5      1     25      6       96.50           50.00           94.00    
      6      1     25      7       95.50           50.00           93.00    
      7      1     25      8       94.50           50.00           92.00    
      8      1     25      9       93.50           50.00           91.00    
      9      1     25     10       92.50           50.00           90.00    
     10      1     25     11       91.50           50.00           89.00    
     11      1     25     12       90.50           50.00           88.00    
     12      1     25     13       89.50           50.00           87.00    
     13      1     25     14       88.50           50.00           86.00    
     14      1     25     15       87.50           50.00           85.00    
     15      1     25     16       86.50           50.00           84.00    
     16      1     25     17       85.50           50.00           83.00    
     17      1     25     18       84.50           50.00           82.00    
     18      1     25     19       83.50           50.00           81.00    
     19      1     25     20       82.50           50.00           80.00    
     20      1     25     21       81.50           50.00           79.00    
     21      1     25     22       80.50           50.00           78.00    
     22      1     25     23       79.50           50.00           77.00    
     23      1     25     24       78.50           50.00           76.00    
     24      1     25     25       77.50           50.00           75.00    
     25      1     25     26       77.40           50.00           74.90    
     26      1     25     27       77.30           50.00           74.80    
     27      1     25     28       77.20           50.00           74.70    
     28      1     25     29       77.10           50.00           74.60    
     29      1     25     30       77.00           50.00           74.50    
     30      1     25     31       76.90           50.00           74.40    
     31      1     25     32       76.80           50.00           74.30    
     32      1     25     33       76.70           50.00           74.20    
     33      1     25     34       76.60           50.00           74.10    
     34      1     25     35       76.50           50.00           74.00    
     35      1     25     36       76.40           50.00           73.90    
     36      1     25     37       76.30           50.00           73.80    
     37      1     25     38       76.20           50.00           73.70    
     38      1     25     39       76.10           50.00           73.60    
     39      1     25     40       76.00           50.00           73.50    
     40      1     25     41       75.90           50.00           73.40    
     41      1     25     42       75.80           50.00           73.30    
     42      1     25     43       75.70           50.00           73.20    
     43      1     25     44       75.60           50.00           73.10    
     44      1     25     45       75.50           50.00           73.00    
     45      1     25     46       75.40           50.00           72.90    
     46      1     25     47       75.30           50.00           72.80    
     47      1     25     48       75.20           50.00           72.70    
     48      1     25     49       75.10           50.00           72.60    
     49      1     25     50       75.00           50.00           72.50    

     49 RIVER REACHES



                         ET SURFACE
 READING ON UNIT   22 WITH FORMAT: (50E15.6)           



            EVAPOTRANSPIRATION RATE
 READING ON UNIT   22 WITH FORMAT: (50E15.6)           

         EXTINCTION DEPTH =   10.0000    



                           RECHARGE
 READING ON UNIT   19 WITH FORMAT: (50E15.6)           
 
 SOLVING FOR HEAD 

 OUTPUT CONTROL FOR STRESS PERIOD    1   TIME STEP    1
    SAVE HEAD FOR ALL LAYERS
    SAVE DRAWDOWN FOR ALL LAYERS
    SAVE BUDGET
    PRINT HEAD FOR ALL LAYERS
    PRINT BUDGET
 UBDSV2 SAVING "   CONSTANT HEAD" ON UNIT  53 AT TIME STEP  1, STRESS PERIOD   1
 UBDSV1 SAVING "FLOW RIGHT FACE " ON UNIT  53 AT TIME STEP  1, STRESS PERIOD   1
 UBDSV1 SAVING "FLOW FRONT FACE " ON UNIT  53 AT TIME STEP  1, STRESS PERIOD   1
 UBDSV1 SAVING "FLOW LOWER FACE " ON UNIT  53 AT TIME STEP  1, STRESS PERIOD   1
 UBDSV4 SAVING "   RIVER LEAKAGE" ON UNIT  53 AT TIME STEP  1, STRESS PERIOD   1
 UBDSV3 SAVING "              ET" ON UNIT  53 AT TIME STEP  1, STRESS PERIOD   1
 UBDSV3 SAVING "        RECHARGE" ON UNIT  53 AT TIME STEP  1, STRESS PERIOD   1
1
              HEAD IN LAYER   1 AT END OF TIME STEP   1 IN STRESS PERIOD    1
  ---------------------------------------------------------------------------

            1           2           3           4           5           6           7           8           9          10
           11          12          13          14          15          16          17          18          19          20
           21          22          23          24          25          26          27          28          29          30
           31          32          33          34          35          36          37          38          39          40
           41          42          43          44          45          46          47          48          49          50
 ........................................................................................................................
   1    70.00       71.46       72.75       73.89       74.87       75.72       76.44       77.02       77.48       77.82    
        78.05       78.17       78.17       78.07       77.86       77.55       77.26       76.98       76.72       76.48    
        76.27       76.07       75.87       75.68       75.49       75.30       75.11       74.92       74.73       74.54    
        74.34       74.14       73.94       73.73       73.52       73.30       73.09       72.87       72.64       72.42    
        72.19       71.95       71.72       71.48       71.24       71.00       70.75       70.50       70.25       70.00    
   2    70.00       71.46       72.75       73.88       74.87       75.72       76.43       77.01       77.47       77.81    
        78.03       78.15       78.15       78.05       77.84       77.53       77.23       76.96       76.71       76.47    
        76.26       76.06       75.87       75.68       75.49       75.30       75.11       74.93       74.73       74.54    
        74.34       74.14       73.94       73.73       73.52       73.31       73.09       72.87       72.65       72.42    
        72.19       71.96       71.72       71.48       71.24       71.00       70.75       70.50       70.25       70.00    
   3    70.00       71.46       72.74       73.88       74.86       75.70       76.41       76.99       77.45       77.78    
        78.00       78.11       78.11       78.00       77.80       77.48       77.19       76.93       76.68       76.44    
        76.24       76.04       75.86       75.67       75.49       75.30       75.12       74.93       74.74       74.55    
        74.35       74.15       73.95       73.74       73.53       73.32       73.10       72.88       72.65       72.43    
        72.20       71.96       71.73       71.49       71.25       71.00       70.76       70.51       70.25       70.00    
   4    70.00       71.45       72.74       73.87       74.85       75.69       76.39       76.96       77.41       77.74    
        77.95       78.05       78.04       77.93       77.72       77.41       77.13       76.87       76.63       76.40    
        76.21       76.02       75.84       75.66       75.48       75.30       75.12       74.94       74.75       74.56    
        74.36       74.16       73.96       73.75       73.54       73.33       73.11       72.89       72.66       72.44    
        72.20       71.97       71.73       71.49       71.25       71.01       70.76       70.51       70.26       70.00    
   5    70.00       71.45       72.73       73.86       74.83       75.67       76.36       76.93       77.36       77.68    
        77.88       77.97       77.95       77.84       77.62       77.32       77.04       76.79       76.56       76.35    
        76.17       76.00       75.82       75.65       75.48       75.31       75.13       74.95       74.76       74.57    
        74.38       74.18       73.98       73.77       73.56       73.34       73.12       72.90       72.68       72.45    
        72.22       71.98       71.74       71.50       71.26       71.01       70.76       70.51       70.26       70.00    
   6    70.00       71.45       72.73       73.85       74.82       75.64       76.33       76.88       77.31       77.61    
        77.79       77.86       77.83       77.71       77.49       77.19       76.92       76.69       76.48       76.29    
        76.12       75.96       75.81       75.65       75.48       75.31       75.14       74.96       74.78       74.59    
        74.40       74.20       74.00       73.79       73.58       73.36       73.14       72.92       72.69       72.46    
        72.23       72.00       71.76       71.51       71.27       71.02       70.77       70.52       70.26       70.00    
   7    70.00       71.44       72.72       73.84       74.80       75.62       76.30       76.84       77.25       77.53    
        77.69       77.73       77.68       77.53       77.31       77.02       76.77       76.56       76.38       76.21    
        76.07       75.93       75.79       75.64       75.49       75.33       75.16       74.98       74.80       74.62    
        74.42       74.23       74.02       73.82       73.60       73.39       73.17       72.94       72.72       72.49    
        72.25       72.01       71.77       71.53       71.28       71.03       70.78       70.52       70.26       70.00    
   8    70.00       71.44       72.71       73.83       74.79       75.60       76.27       76.79       77.18       77.43    
        77.56       77.58       77.49       77.31       77.08       76.80       76.58       76.41       76.27       76.13    
        76.02       75.90       75.78       75.64       75.50       75.35       75.18       75.01       74.83       74.65    
        74.46       74.26       74.06       73.85       73.64       73.42       73.20       72.97       72.74       72.51    
        72.27       72.03       71.79       71.54       71.30       71.04       70.79       70.53       70.27       70.00    
   9    70.00       71.44       72.71       73.82       74.78       75.58       76.24       76.75       77.11       77.34    
        77.43       77.39       77.24       77.02       76.76       76.51       76.34       76.23       76.14       76.05    
        75.97       75.88       75.78       75.65       75.52       75.37       75.22       75.05       74.87       74.69    
        74.50       74.30       74.10       73.89       73.67       73.45       73.23       73.00       72.77       72.54    
        72.30       72.06       71.81       71.56       71.31       71.06       70.80       70.53       70.27       70.00    
  10    70.00       71.44       72.71       73.82       74.77       75.57       76.22       76.71       77.06       77.25    
        77.29       77.18       76.95       76.63       76.32       76.12       76.05       76.03       76.01       75.98    
        75.94       75.87       75.79       75.68       75.56       75.42       75.26       75.10       74.92       74.74    
        74.55       74.35       74.14       73.93       73.72       73.50       73.27       73.04       72.81       72.57    
        72.33       72.09       71.84       71.59       71.33       71.07       70.81       70.54       70.27       70.00    
  11    70.00       71.44       72.72       73.83       74.78       75.58       76.22       76.70       77.03       77.18    
        77.17       76.98       76.60       76.10       75.63       75.59       75.71       75.83       75.91       75.93    
        75.93       75.89       75.82       75.72       75.61       75.47       75.32       75.15       74.98       74.79    
        74.60       74.40       74.19       73.98       73.77       73.54       73.32       73.09       72.85       72.61    
        72.37       72.12       71.87       71.62       71.36       71.09       70.83       70.55       70.28       70.00    
  12    70.00       71.45       72.73       73.85       74.80       75.60       76.24       76.71       77.03       77.16    
        77.10       76.81       76.26       75.39       74.38       74.88       75.37       75.68       75.86       75.93    
        75.96       75.94       75.88       75.79       75.68       75.54       75.39       75.22       75.05       74.86    
        74.67       74.46       74.26       74.04       73.82       73.60       73.37       73.14       72.90       72.66    
        72.41       72.16       71.91       71.65       71.39       71.12       70.85       70.57       70.29       70.00    
  13    70.00       71.46       72.75       73.87       74.84       75.64       76.28       76.76       77.07       77.20    
        77.12       76.79       76.08       74.68       71.39       74.16       75.20       75.68       75.90       76.00    
        76.04       76.03       75.97       75.88       75.77       75.63       75.48       75.31       75.13       74.94    
        74.74       74.54       74.33       74.11       73.89       73.66       73.43       73.19       72.95       72.71    
        72.46       72.21       71.95       71.69       71.42       71.15       70.87       70.58       70.29       70.00    
  14    70.00       71.47       72.77       73.91       74.88       75.70       76.35       76.85       77.17       77.32    
        77.27       77.00       76.45       75.60       74.60       75.10       75.60       75.91       76.08       76.15    
        76.18       76.16       76.10       76.00       75.88       75.74       75.58       75.41       75.22       75.03    
        74.83       74.62       74.40       74.18       73.96       73.73       73.50       73.26       73.02       72.77    
        72.52       72.27       72.00       71.74       71.46       71.18       70.89       70.60       70.30       70.00    
  15    70.00       71.49       72.81       73.96       74.95       75.78       76.45       76.97       77.32       77.51    
        77.52       77.35       77.00       76.51       76.06       76.03       76.16       76.29       76.36       76.38    
        76.38       76.33       76.25       76.15       76.01       75.86       75.70       75.52       75.33       75.13    
        74.92       74.71       74.49       74.27       74.04       73.81       73.57       73.33       73.09       72.84    
        72.59       72.33       72.06       71.79       71.51       71.22       70.93       70.62       70.31       70.00    
  16    70.00       71.51       72.85       74.02       75.03       75.88       76.58       77.12       77.50       77.74    
        77.81       77.74       77.54       77.25       76.97       76.78       76.73       76.72       76.70       76.65    
        76.61       76.54       76.44       76.31       76.17       76.00       75.83       75.64       75.44       75.24    
        75.02       74.81       74.58       74.36       74.13       73.89       73.66       73.42       73.17       72.92    
        72.67       72.40       72.14       71.86       71.57       71.27       70.97       70.65       70.33       70.00    
  17    70.00       71.53       72.89       74.09       75.12       75.99       76.72       77.29       77.71       77.99    
        78.13       78.13       78.03       77.85       77.63       77.40       77.26       77.16       77.07       76.96    
        76.89       76.78       76.65       76.50       76.34       76.16       75.97       75.77       75.57       75.35    
        75.14       74.91       74.69       74.46       74.23       73.99       73.75       73.51       73.26       73.01    
        72.76       72.49       72.22       71.94       71.64       71.33       71.02       70.69       70.35       70.00    
  18    70.00       71.56       72.95       74.16       75.22       76.12       76.87       77.48       77.93       78.25    
        78.44       78.51       78.47       78.35       78.16       77.92       77.73       77.59       77.45       77.30    
        77.18       77.04       76.88       76.71       76.53       76.33       76.13       75.92       75.70       75.48    
        75.26       75.03       74.80       74.57       74.33       74.10       73.86       73.62       73.37       73.12    
        72.86       72.59       72.32       72.03       71.73       71.41       71.08       70.73       70.37       70.00    
  19    70.00       71.59       73.00       74.25       75.33       76.26       77.04       77.67       78.16       78.52    
        78.75       78.86       78.87       78.78       78.62       78.37       78.17       78.00       77.84       77.65    
        77.49       77.32       77.13       76.93       76.73       76.52       76.30       76.07       75.85       75.62    
        75.39       75.15       74.92       74.69       74.45       74.22       73.98       73.74       73.49       73.24    
        72.98       72.71       72.43       72.14       71.83       71.50       71.15       70.78       70.40       70.00    
  20    70.00       71.62       73.07       74.35       75.46       76.41       77.22       77.88       78.40       78.78    
        79.05       79.19       79.23       79.17       79.02       78.78       78.58       78.41       78.26       78.04    
        77.82       77.60       77.38       77.16       76.94       76.71       76.48       76.24       76.00       75.76    
        75.52       75.29       75.05       74.82       74.58       74.35       74.11       73.87       73.63       73.38    
        73.12       72.86       72.58       72.28       71.96       71.62       71.25       70.85       70.43       70.00    
  21    70.00       71.66       73.14       74.45       75.59       76.57       77.40       78.08       78.63       79.05    
        79.33       79.51       79.57       79.52       79.38       79.14       78.95       78.80       78.74       78.50    
        78.15       77.88       77.63       77.39       77.15       76.91       76.66       76.41       76.16       75.91    
        75.67       75.43       75.19       74.96       74.73       74.49       74.26       74.02       73.78       73.54    
        73.29       73.02       72.74       72.44       72.12       71.76       71.37       70.94       70.48       70.00    
  22    70.00       71.71       73.23       74.57       75.73       76.74       77.59       78.30       78.87       79.30    
        79.61       79.80       79.88       79.84       79.71       79.47       79.26       79.10       79.03       78.77    
        78.41       78.13       77.86       77.61       77.37       77.13       76.86       76.59       76.32       76.06    
        75.82       75.58       75.34       75.11       74.88       74.66       74.43       74.20       73.96       73.73    
        73.48       73.22       72.94       72.64       72.32       71.95       71.53       71.07       70.55       70.00    
  23    70.00       71.76       73.33       74.70       75.89       76.92       77.79       78.52       79.10       79.55    
        79.88       80.08       80.17       80.14       80.00       79.76       79.53       79.32       79.12       78.84    
        78.61       78.35       78.09       77.84       77.60       77.37       77.07       76.77       76.48       76.22    
        75.97       75.73       75.50       75.28       75.05       74.83       74.61       74.39       74.17       73.94    
        73.70       73.45       73.18       72.89       72.56       72.19       71.75       71.24       70.66       70.00    
  24    70.00       71.84       73.45       74.85       76.07       77.12       78.00       78.74       79.34       79.81    
        80.14       80.36       80.45       80.42       80.29       80.03       79.78       79.54       79.28       78.99    
        78.83       78.59       78.31       78.05       77.84       77.69       77.30       76.94       76.63       76.36    
        76.12       75.89       75.67       75.45       75.24       75.03       74.82       74.61       74.40       74.18    
        73.96       73.72       73.46       73.18       72.87       72.50       72.05       71.50       70.82       70.00    
  25    70.00       71.96       73.61       75.04       76.27       77.33       78.23       78.98       79.58       80.06    
        80.40       80.62       80.72       80.70       80.56       80.29       80.03       79.77       79.49       79.18    
        79.13       78.86       78.53       78.22       78.04       78.28       77.50       77.07       76.76       76.50    
        76.27       76.05       75.84       75.64       75.44       75.25       75.05       74.86       74.66       74.46    
        74.25       74.03       73.79       73.53       73.24       72.89       72.44       71.88       71.13       70.00    
  26    70.00       71.86       73.50       74.92       76.16       77.23       78.14       78.90       79.52       80.00    
        80.35       80.58       80.68       80.66       80.51       80.24       79.97       79.70       79.41       79.10    
        78.95       78.72       78.45       78.19       77.98       77.83       77.42       77.06       76.75       76.47    
        76.22       75.98       75.76       75.54       75.32       75.11       74.89       74.68       74.46       74.24    
        74.01       73.76       73.50       73.22       72.89       72.52       72.06       71.51       70.83       70.00    
  27    70.00       71.81       73.42       74.84       76.08       77.15       78.07       78.83       79.46       79.95    
        80.30       80.53       80.63       80.61       80.47       80.19       79.92       79.64       79.34       79.04    
        78.84       78.62       78.37       78.12       77.88       77.64       77.32       77.01       76.71       76.43    
        76.17       75.92       75.68       75.44       75.21       74.98       74.76       74.53       74.29       74.05    
        73.80       73.54       73.26       72.96       72.62       72.23       71.78       71.26       70.67       70.00    
  28    70.00       71.78       73.37       74.78       76.01       77.08       78.00       78.77       79.40       79.89    
        80.26       80.49       80.59       80.57       80.42       80.15       79.87       79.59       79.29       78.99    
        78.78       78.55       78.30       78.05       77.80       77.53       77.25       76.95       76.66       76.39    
        76.12       75.86       75.61       75.36       75.12       74.88       74.64       74.40       74.15       73.89    
        73.63       73.35       73.06       72.74       72.40       72.01       71.58       71.10       70.57       70.00    
  29    70.00       71.76       73.33       74.73       75.96       77.03       77.95       78.72       79.35       79.85    
        80.21       80.45       80.55       80.53       80.39       80.11       79.83       79.55       79.25       78.96    
        78.73       78.49       78.25       77.99       77.73       77.46       77.18       76.90       76.62       76.34    
        76.07       75.81       75.55       75.30       75.04       74.79       74.54       74.29       74.03       73.76    
        73.49       73.20       72.90       72.57       72.23       71.85       71.44       70.99       70.51       70.00    
  30    70.00       71.74       73.31       74.70       75.92       76.99       77.90       78.68       79.31       79.81    
        80.17       80.41       80.52       80.50       80.35       80.07       79.79       79.51       79.22       78.93    
        78.69       78.45       78.20       77.94       77.68       77.41       77.13       76.85       76.58       76.30    
        76.03       75.76       75.50       75.24       74.98       74.72       74.46       74.19       73.92       73.65    
        73.37       73.07       72.77       72.44       72.09       71.72       71.33       70.91       70.46       70.00    
  31    70.00       71.73       73.29       74.67       75.89       76.95       77.87       78.64       79.27       79.77    
        80.14       80.37       80.48       80.46       80.32       80.04       79.76       79.48       79.19       78.90    
        78.66       78.41       78.16       77.90       77.64       77.36       77.09       76.81       76.54       76.26    
        75.99       75.72       75.45       75.19       74.92       74.65       74.39       74.11       73.84       73.56    
        73.27       72.97       72.66       72.33       71.99       71.63       71.25       70.85       70.43       70.00    
  32    70.00       71.72       73.27       74.64       75.86       76.92       77.83       78.61       79.24       79.74    
        80.10       80.34       80.45       80.43       80.29       80.01       79.73       79.45       79.17       78.87    
        78.63       78.38       78.13       77.87       77.60       77.33       77.06       76.78       76.51       76.23    
        75.96       75.68       75.41       75.14       74.87       74.60       74.33       74.05       73.77       73.48    
        73.19       72.89       72.58       72.25       71.91       71.56       71.19       70.80       70.41       70.00    
  33    70.00       71.72       73.26       74.63       75.84       76.90       77.81       78.58       79.21       79.71    
        80.07       80.31       80.42       80.40       80.26       79.98       79.71       79.43       79.14       78.85    
        78.61       78.35       78.10       77.84       77.57       77.30       77.03       76.75       76.48       76.20    
        75.93       75.65       75.38       75.11       74.83       74.55       74.28       74.00       73.71       73.42    
        73.12       72.82       72.51       72.18       71.85       71.50       71.14       70.77       70.39       70.00    
  34    70.00       71.71       73.24       74.61       75.82       76.87       77.78       78.55       79.18       79.68    
        80.05       80.29       80.40       80.38       80.23       79.96       79.69       79.41       79.12       78.84    
        78.59       78.33       78.07       77.81       77.54       77.27       77.00       76.73       76.45       76.18    
        75.90       75.63       75.35       75.07       74.80       74.52       74.23       73.95       73.66       73.37    
        73.07       72.77       72.45       72.13       71.80       71.46       71.11       70.75       70.38       70.00    
  35    70.00       71.71       73.24       74.60       75.80       76.86       77.76       78.53       79.16       79.66    
        80.03       80.26       80.37       80.36       80.21       79.94       79.66       79.39       79.11       78.82    
        78.57       78.31       78.05       77.79       77.52       77.25       76.98       76.71       76.43       76.16    
        75.88       75.60       75.32       75.05       74.77       74.48       74.20       73.91       73.62       73.33    
        73.03       72.72       72.41       72.09       71.76       71.42       71.08       70.73       70.37       70.00    
  36    70.00       71.70       73.23       74.59       75.79       76.84       77.75       78.51       79.14       79.64    
        80.00       80.24       80.35       80.34       80.19       79.92       79.65       79.37       79.09       78.81    
        78.55       78.30       78.04       77.77       77.50       77.23       76.96       76.69       76.41       76.14    
        75.86       75.58       75.30       75.02       74.74       74.46       74.17       73.88       73.59       73.29    
        72.99       72.69       72.37       72.05       71.73       71.40       71.06       70.71       70.36       70.00    
  37    70.00       71.70       73.22       74.58       75.78       76.83       77.73       78.50       79.13       79.62    
        79.99       80.22       80.33       80.32       80.17       79.90       79.63       79.35       79.08       78.79    
        78.54       78.28       78.02       77.76       77.49       77.22       76.95       76.67       76.40       76.12    
        75.84       75.56       75.28       75.00       74.72       74.43       74.14       73.85       73.56       73.26    
        72.96       72.65       72.34       72.03       71.70       71.37       71.04       70.70       70.35       70.00    
  38    70.00       71.70       73.22       74.57       75.77       76.82       77.72       78.48       79.11       79.61    
        79.97       80.21       80.32       80.30       80.16       79.89       79.62       79.34       79.06       78.78    
        78.53       78.27       78.01       77.74       77.48       77.21       76.93       76.66       76.38       76.11    
        75.83       75.55       75.27       74.98       74.70       74.41       74.12       73.83       73.54       73.24    
        72.94       72.63       72.32       72.00       71.68       71.36       71.03       70.69       70.35       70.00    
  39    70.00       71.69       73.21       74.57       75.76       76.81       77.71       78.47       79.10       79.59    
        79.96       80.19       80.30       80.29       80.15       79.88       79.60       79.33       79.05       78.77    
        78.52       78.26       78.00       77.73       77.46       77.19       76.92       76.65       76.37       76.09    
        75.81       75.53       75.25       74.97       74.68       74.39       74.10       73.81       73.52       73.22    
        72.92       72.61       72.30       71.99       71.67       71.34       71.01       70.68       70.34       70.00    
  40    70.00       71.69       73.21       74.56       75.75       76.80       77.70       78.46       79.09       79.58    
        79.95       80.18       80.29       80.28       80.13       79.87       79.59       79.32       79.04       78.77    
        78.51       78.25       77.99       77.72       77.45       77.18       76.91       76.64       76.36       76.08    
        75.80       75.52       75.24       74.95       74.67       74.38       74.09       73.79       73.50       73.20    
        72.90       72.59       72.28       71.97       71.65       71.33       71.01       70.67       70.34       70.00    
  41    70.00       71.69       73.21       74.56       75.75       76.79       77.69       78.45       79.08       79.57    
        79.94       80.17       80.28       80.27       80.12       79.86       79.58       79.31       79.04       78.76    
        78.50       78.24       77.98       77.71       77.44       77.17       76.90       76.63       76.35       76.07    
        75.79       75.51       75.23       74.94       74.65       74.37       74.07       73.78       73.48       73.19    
        72.88       72.58       72.27       71.96       71.64       71.32       71.00       70.67       70.34       70.00    
  42    70.00       71.69       73.20       74.55       75.74       76.79       77.68       78.44       79.07       79.56    
        79.93       80.16       80.27       80.26       80.12       79.85       79.58       79.30       79.03       78.75    
        78.49       78.23       77.97       77.70       77.44       77.17       76.89       76.62       76.34       76.06    
        75.78       75.50       75.22       74.93       74.64       74.35       74.06       73.77       73.47       73.17    
        72.87       72.57       72.26       71.95       71.63       71.31       70.99       70.67       70.33       70.00    
  43    70.00       71.69       73.20       74.55       75.74       76.78       77.68       78.44       79.06       79.56    
        79.92       80.16       80.27       80.25       80.11       79.84       79.57       79.30       79.02       78.75    
        78.49       78.23       77.96       77.70       77.43       77.16       76.89       76.61       76.33       76.06    
        75.78       75.49       75.21       74.92       74.64       74.35       74.05       73.76       73.46       73.16    
        72.86       72.56       72.25       71.94       71.63       71.31       70.99       70.66       70.33       70.00    
  44    70.00       71.69       73.20       74.55       75.74       76.78       77.67       78.43       79.06       79.55    
        79.91       80.15       80.26       80.24       80.10       79.83       79.56       79.29       79.02       78.74    
        78.48       78.22       77.96       77.69       77.42       77.15       76.88       76.60       76.33       76.05    
        75.77       75.49       75.20       74.92       74.63       74.34       74.05       73.75       73.46       73.16    
        72.85       72.55       72.24       71.93       71.62       71.30       70.98       70.66       70.33       70.00    
  45    70.00       71.69       73.20       74.54       75.73       76.77       77.67       78.43       79.05       79.54    
        79.91       80.14       80.25       80.24       80.10       79.83       79.56       79.29       79.01       78.74    
        78.48       78.22       77.95       77.69       77.42       77.15       76.87       76.60       76.32       76.04    
        75.76       75.48       75.20       74.91       74.62       74.33       74.04       73.75       73.45       73.15    
        72.85       72.54       72.24       71.93       71.62       71.30       70.98       70.66       70.33       70.00    
  46    70.00       71.69       73.20       74.54       75.73       76.77       77.67       78.42       79.05       79.54    
        79.90       80.14       80.25       80.23       80.09       79.82       79.55       79.28       79.01       78.73    
        78.48       78.21       77.95       77.68       77.41       77.14       76.87       76.60       76.32       76.04    
        75.76       75.48       75.19       74.91       74.62       74.33       74.03       73.74       73.44       73.14    
        72.84       72.54       72.23       71.92       71.61       71.30       70.98       70.66       70.33       70.00    
  47    70.00       71.69       73.19       74.54       75.73       76.77       77.66       78.42       79.04       79.54    
        79.90       80.14       80.25       80.23       80.09       79.82       79.55       79.28       79.01       78.73    
        78.47       78.21       77.95       77.68       77.41       77.14       76.87       76.59       76.31       76.04    
        75.76       75.47       75.19       74.90       74.61       74.32       74.03       73.74       73.44       73.14    
        72.84       72.54       72.23       71.92       71.61       71.29       70.98       70.65       70.33       70.00    
  48    70.00       71.68       73.19       74.54       75.73       76.77       77.66       78.42       79.04       79.53    
        79.90       80.13       80.24       80.23       80.09       79.82       79.55       79.28       79.00       78.73    
        78.47       78.21       77.94       77.68       77.41       77.14       76.86       76.59       76.31       76.03    
        75.75       75.47       75.19       74.90       74.61       74.32       74.03       73.73       73.44       73.14    
        72.84       72.53       72.23       71.92       71.61       71.29       70.98       70.65       70.33       70.00    
  49    70.00       71.68       73.19       74.54       75.73       76.76       77.66       78.42       79.04       79.53    
        79.90       80.13       80.24       80.23       80.08       79.82       79.55       79.28       79.00       78.73    
        78.47       78.21       77.94       77.68       77.41       77.14       76.86       76.59       76.31       76.03    
        75.75       75.47       75.18       74.90       74.61       74.32       74.03       73.73       73.44       73.14    
        72.84       72.53       72.23       71.92       71.61       71.29       70.97       70.65       70.33       70.00    
  50    70.00       71.68       73.19       74.54       75.73       76.76       77.66       78.42       79.04       79.53    
        79.89       80.13       80.24       80.22       80.08       79.82       79.55       79.28       79.00       78.73    
        78.47       78.21       77.94       77.68       77.41       77.14       76.86       76.59       76.31       76.03    
        75.75       75.47       75.18       74.90       74.61       74.32       74.02       73.73       73.43       73.14    
        72.83       72.53       72.23       71.92       71.61       71.29       70.97       70.65       70.33       70.00    
1
              HEAD IN LAYER   2 AT END OF TIME STEP   1 IN STRESS PERIOD    1
  ---------------------------------------------------------------------------

            1           2           3           4           5           6           7           8           9          10
           11          12          13          14          15          16          17          18          19          20
           21          22          23          24          25          26          27          28          29          30
           31          32          33          34          35          36          37          38          39          40
           41          42          43          44          45          46          47          48          49          50
 ........................................................................................................................
   1    70.00       71.46       72.75       73.89       74.87       75.72       76.44       77.02       77.48       77.82    
        78.05       78.17       78.17       78.07       77.86       77.55       77.26       76.98       76.72       76.48    
        76.26       76.04       75.83       75.62       75.42       75.22       75.02       74.82       74.62       74.42    
        74.21       74.01       73.80       73.59       73.37       73.16       72.94       72.72       72.50       72.28    
        72.05       71.83       71.60       71.38       71.15       70.92       70.69       70.46       70.23       70.00    
   2    70.00       71.46       72.75       73.88       74.87       75.72       76.43       77.01       77.47       77.81    
        78.03       78.15       78.15       78.05       77.84       77.53       77.23       76.96       76.71       76.47    
        76.24       76.03       75.82       75.62       75.42       75.22       75.02       74.82       74.62       74.42    
        74.21       74.01       73.80       73.59       73.37       73.16       72.94       72.72       72.50       72.28    
        72.06       71.83       71.61       71.38       71.15       70.92       70.69       70.46       70.23       70.00    
   3    70.00       71.45       72.74       73.88       74.86       75.70       76.41       76.99       77.45       77.78    
        78.00       78.11       78.11       78.00       77.79       77.48       77.19       76.93       76.68       76.44    
        76.22       76.01       75.81       75.61       75.41       75.22       75.02       74.82       74.62       74.42    
        74.22       74.01       73.80       73.59       73.38       73.16       72.94       72.72       72.50       72.28    
        72.06       71.83       71.61       71.38       71.15       70.92       70.69       70.46       70.23       70.00    
   4    70.00       71.45       72.74       73.87       74.85       75.69       76.39       76.96       77.41       77.74    
        77.95       78.05       78.04       77.93       77.72       77.41       77.13       76.87       76.63       76.40    
        76.19       75.99       75.80       75.60       75.41       75.22       75.02       74.83       74.63       74.43    
        74.22       74.02       73.81       73.60       73.38       73.16       72.95       72.73       72.51       72.28    
        72.06       71.83       71.61       71.38       71.15       70.92       70.69       70.46       70.23       70.00    
   5    70.00       71.45       72.73       73.86       74.83       75.67       76.36       76.93       77.36       77.68    
        77.88       77.97       77.95       77.84       77.62       77.32       77.04       76.79       76.56       76.35    
        76.15       75.96       75.78       75.59       75.40       75.22       75.03       74.83       74.64       74.44    
        74.23       74.03       73.82       73.60       73.39       73.17       72.95       72.73       72.51       72.29    
        72.06       71.84       71.61       71.38       71.15       70.92       70.69       70.46       70.23       70.00    
   6    70.00       71.45       72.73       73.85       74.82       75.64       76.33       76.88       77.31       77.61    
        77.79       77.86       77.83       77.71       77.49       77.19       76.92       76.69       76.48       76.29    
        76.11       75.93       75.76       75.58       75.40       75.22       75.03       74.84       74.65       74.45    
        74.24       74.04       73.83       73.61       73.40       73.18       72.96       72.74       72.51       72.29    
        72.06       71.84       71.61       71.38       71.15       70.92       70.69       70.46       70.23       70.00    
   7    70.00       71.44       72.72       73.84       74.80       75.62       76.30       76.84       77.25       77.53    
        77.69       77.73       77.68       77.53       77.31       77.02       76.77       76.56       76.38       76.21    
        76.05       75.90       75.74       75.57       75.40       75.22       75.04       74.85       74.66       74.46    
        74.26       74.05       73.84       73.62       73.41       73.19       72.96       72.74       72.52       72.29    
        72.07       71.84       71.61       71.38       71.16       70.93       70.70       70.46       70.23       70.00    
   8    70.00       71.44       72.71       73.83       74.79       75.60       76.26       76.79       77.18       77.43    
        77.56       77.58       77.49       77.31       77.08       76.80       76.58       76.41       76.27       76.13    
        76.00       75.86       75.72       75.57       75.41       75.24       75.06       74.87       74.68       74.48    
        74.28       74.07       73.85       73.64       73.42       73.20       72.97       72.75       72.52       72.30    
        72.07       71.84       71.62       71.39       71.16       70.93       70.70       70.46       70.23       70.00    
   9    70.00       71.44       72.71       73.82       74.78       75.58       76.24       76.75       77.11       77.34    
        77.43       77.39       77.24       77.02       76.76       76.51       76.34       76.23       76.14       76.05    
        75.95       75.84       75.71       75.57       75.42       75.26       75.08       74.90       74.70       74.50    
        74.30       74.09       73.87       73.65       73.43       73.21       72.98       72.76       72.53       72.30    
        72.07       71.85       71.62       71.39       71.16       70.93       70.70       70.47       70.23       70.00    
  10    70.00       71.44       72.71       73.82       74.77       75.57       76.22       76.71       77.06       77.25    
        77.29       77.18       76.95       76.63       76.32       76.12       76.05       76.03       76.01       75.98    
        75.92       75.83       75.72       75.59       75.45       75.29       75.11       74.93       74.73       74.53    
        74.33       74.11       73.89       73.67       73.45       73.22       72.99       72.76       72.54       72.31    
        72.08       71.85       71.62       71.39       71.16       70.93       70.70       70.47       70.23       70.00    
  11    70.00       71.44       72.72       73.83       74.78       75.58       76.22       76.70       77.02       77.18    
        77.17       76.98       76.60       76.10       75.63       75.59       75.71       75.83       75.91       75.93    
        75.91       75.84       75.75       75.63       75.49       75.33       75.16       74.97       74.77       74.57    
        74.36       74.14       73.92       73.69       73.46       73.23       73.00       72.77       72.54       72.31    
        72.08       71.85       71.62       71.39       71.16       70.93       70.70       70.47       70.23       70.00    
  12    70.00       71.45       72.73       73.85       74.80       75.60       76.24       76.71       77.03       77.16    
        77.10       76.81       76.26       75.39       74.38       74.88       75.37       75.68       75.86       75.93    
        75.93       75.89       75.80       75.68       75.54       75.39       75.21       75.02       74.82       74.61    
        74.40       74.17       73.95       73.72       73.48       73.25       73.01       72.78       72.55       72.31    
        72.08       71.85       71.63       71.40       71.17       70.93       70.70       70.47       70.24       70.00    
  13    70.00       71.46       72.75       73.87       74.84       75.64       76.28       76.76       77.07       77.20    
        77.12       76.79       76.08       74.67       71.40       74.16       75.20       75.68       75.90       76.00    
        76.01       75.97       75.88       75.76       75.62       75.46       75.28       75.08       74.88       74.66    
        74.44       74.21       73.98       73.74       73.50       73.26       73.03       72.79       72.55       72.32    
        72.09       71.86       71.63       71.40       71.17       70.94       70.71       70.47       70.24       70.00    
  14    70.00       71.47       72.77       73.91       74.88       75.70       76.35       76.85       77.17       77.32    
        77.27       77.00       76.45       75.60       74.60       75.10       75.60       75.91       76.08       76.15    
        76.15       76.09       76.00       75.87       75.72       75.55       75.36       75.16       74.94       74.72    
        74.49       74.26       74.02       73.77       73.53       73.28       73.04       72.79       72.55       72.32    
        72.09       71.86       71.63       71.40       71.17       70.94       70.71       70.47       70.24       70.00    
  15    70.00       71.49       72.81       73.96       74.95       75.78       76.45       76.97       77.32       77.51    
        77.52       77.35       77.00       76.51       76.06       76.03       76.16       76.29       76.36       76.38    
        76.34       76.26       76.14       76.00       75.83       75.65       75.45       75.24       75.02       74.79    
        74.55       74.31       74.06       73.80       73.55       73.30       73.05       72.80       72.56       72.32    
        72.09       71.86       71.63       71.41       71.18       70.95       70.72       70.48       70.24       70.00    
  16    70.00       71.51       72.85       74.02       75.03       75.88       76.58       77.12       77.50       77.74    
        77.81       77.74       77.54       77.25       76.97       76.78       76.73       76.72       76.70       76.65    
        76.57       76.46       76.32       76.15       75.97       75.77       75.56       75.33       75.10       74.86    
        74.61       74.36       74.10       73.84       73.58       73.31       73.05       72.80       72.56       72.32    
        72.09       71.86       71.64       71.41       71.19       70.96       70.72       70.48       70.24       70.00    
  17    70.00       71.53       72.89       74.09       75.12       75.99       76.72       77.29       77.71       77.99    
        78.13       78.13       78.03       77.85       77.63       77.40       77.26       77.16       77.07       76.96    
        76.84       76.68       76.51       76.32       76.12       75.90       75.67       75.44       75.19       74.94    
        74.68       74.42       74.15       73.88       73.60       73.33       73.06       72.80       72.55       72.31    
        72.09       71.86       71.65       71.42       71.20       70.97       70.73       70.49       70.25       70.00    
  18    70.00       71.56       72.95       74.16       75.22       76.12       76.87       77.48       77.93       78.25    
        78.44       78.51       78.47       78.35       78.16       77.92       77.73       77.59       77.45       77.30    
        77.12       76.93       76.72       76.51       76.28       76.04       75.80       75.55       75.29       75.03    
        74.76       74.48       74.20       73.92       73.63       73.35       73.07       72.80       72.54       72.31    
        72.08       71.87       71.66       71.44       71.22       70.99       70.75       70.51       70.25       70.00    
  19    70.00       71.59       73.00       74.25       75.33       76.26       77.04       77.67       78.16       78.52    
        78.75       78.86       78.87       78.78       78.62       78.37       78.17       78.00       77.84       77.65    
        77.43       77.19       76.94       76.70       76.44       76.19       75.93       75.66       75.39       75.12    
        74.84       74.55       74.26       73.97       73.67       73.37       73.08       72.79       72.53       72.30    
        72.09       71.88       71.68       71.47       71.25       71.01       70.77       70.52       70.26       70.00    
  20    70.00       71.62       73.07       74.35       75.46       76.41       77.22       77.88       78.40       78.78    
        79.05       79.19       79.23       79.17       79.02       78.78       78.58       78.41       78.26       78.04    
        77.75       77.45       77.17       76.89       76.61       76.34       76.06       75.78       75.50       75.22    
        74.93       74.63       74.33       74.03       73.72       73.40       73.09       72.79       72.52       72.29    
        72.09       71.90       71.71       71.50       71.28       71.05       70.80       70.54       70.27       70.00    
  21    70.00       71.66       73.14       74.45       75.59       76.57       77.40       78.08       78.63       79.04    
        79.33       79.51       79.57       79.52       79.38       79.14       78.95       78.80       78.74       78.50    
        78.06       77.70       77.38       77.07       76.78       76.49       76.20       75.90       75.61       75.31    
        75.02       74.71       74.41       74.09       73.77       73.45       73.12       72.80       72.52       72.30    
        72.12       71.94       71.75       71.55       71.33       71.10       70.84       70.57       70.29       70.00    
  22    70.00       71.71       73.23       74.57       75.73       76.74       77.59       78.30       78.87       79.30    
        79.61       79.80       79.88       79.84       79.71       79.47       79.26       79.10       79.03       78.76    
        78.30       77.91       77.57       77.25       76.94       76.63       76.33       76.02       75.72       75.41    
        75.11       74.80       74.49       74.17       73.85       73.52       73.18       72.85       72.54       72.34    
        72.17       72.00       71.82       71.62       71.39       71.15       70.89       70.61       70.31       70.00    
  23    70.00       71.76       73.33       74.70       75.89       76.92       77.79       78.52       79.10       79.55    
        79.88       80.08       80.17       80.14       80.00       79.76       79.53       79.32       79.12       78.84    
        78.46       78.08       77.73       77.40       77.08       76.76       76.45       76.13       75.82       75.51    
        75.20       74.89       74.58       74.26       73.94       73.61       73.28       72.96       72.67       72.46    
        72.27       72.09       71.90       71.69       71.47       71.22       70.94       70.65       70.33       70.00    
  24    70.00       71.84       73.45       74.85       76.07       77.12       78.00       78.74       79.34       79.81    
        80.14       80.36       80.45       80.42       80.29       80.03       79.78       79.54       79.28       78.99    
        78.60       78.22       77.86       77.52       77.20       76.88       76.56       76.23       75.92       75.60    
        75.29       74.98       74.67       74.35       74.03       73.72       73.40       73.10       72.83       72.60    
        72.39       72.19       71.99       71.77       71.54       71.28       71.00       70.69       70.35       70.00    
  25    70.00       71.96       73.61       75.04       76.27       77.33       78.23       78.98       79.58       80.06    
        80.40       80.62       80.72       80.70       80.56       80.29       80.03       79.77       79.49       79.18    
        78.71       78.32       77.96       77.62       77.29       76.98       76.65       76.32       75.99       75.68    
        75.37       75.05       74.74       74.43       74.13       73.82       73.52       73.23       72.96       72.72    
        72.50       72.29       72.07       71.84       71.59       71.33       71.04       70.72       70.37       70.00    
  26    70.00       71.86       73.50       74.92       76.16       77.23       78.14       78.90       79.52       80.00    
        80.35       80.58       80.68       80.66       80.51       80.24       79.97       79.70       79.41       79.10    
        78.72       78.35       78.01       77.67       77.35       77.03       76.70       76.37       76.05       75.73    
        75.42       75.11       74.80       74.50       74.19       73.89       73.60       73.32       73.05       72.80    
        72.57       72.34       72.11       71.87       71.61       71.33       71.03       70.71       70.36       70.00    
  27    70.00       71.81       73.42       74.84       76.08       77.15       78.07       78.83       79.46       79.95    
        80.30       80.53       80.63       80.61       80.47       80.19       79.92       79.64       79.34       79.04    
        78.70       78.36       78.02       77.70       77.37       77.05       76.73       76.41       76.09       75.78    
        75.46       75.16       74.85       74.55       74.25       73.95       73.66       73.38       73.12       72.86    
        72.61       72.37       72.12       71.87       71.60       71.32       71.02       70.69       70.35       70.00    
  28    70.00       71.78       73.37       74.78       76.01       77.08       78.00       78.77       79.40       79.89    
        80.26       80.49       80.59       80.57       80.42       80.15       79.87       79.59       79.29       78.99    
        78.67       78.35       78.03       77.71       77.39       77.07       76.75       76.43       76.12       75.81    
        75.50       75.19       74.89       74.59       74.29       74.00       73.71       73.43       73.16       72.90    
        72.64       72.38       72.13       71.86       71.59       71.30       70.99       70.67       70.34       70.00    
  29    70.00       71.76       73.33       74.73       75.96       77.03       77.95       78.72       79.35       79.85    
        80.21       80.45       80.55       80.53       80.39       80.11       79.83       79.55       79.25       78.96    
        78.65       78.33       78.02       77.71       77.39       77.08       76.76       76.45       76.14       75.83    
        75.52       75.22       74.92       74.62       74.32       74.03       73.74       73.46       73.19       72.92    
        72.66       72.39       72.12       71.85       71.57       71.28       70.97       70.66       70.33       70.00    
  30    70.00       71.74       73.31       74.70       75.92       76.99       77.90       78.68       79.31       79.81    
        80.17       80.41       80.52       80.50       80.35       80.07       79.79       79.51       79.22       78.93    
        78.62       78.32       78.01       77.70       77.39       77.08       76.77       76.46       76.15       75.85    
        75.54       75.24       74.94       74.64       74.35       74.06       73.77       73.49       73.21       72.94    
        72.67       72.39       72.12       71.84       71.56       71.26       70.96       70.64       70.32       70.00    
  31    70.00       71.73       73.29       74.67       75.89       76.95       77.87       78.64       79.27       79.77    
        80.14       80.37       80.48       80.46       80.32       80.04       79.76       79.48       79.19       78.90    
        78.60       78.30       78.00       77.69       77.39       77.08       76.77       76.47       76.16       75.86    
        75.56       75.26       74.96       74.66       74.37       74.08       73.79       73.51       73.23       72.95    
        72.67       72.40       72.12       71.83       71.54       71.25       70.94       70.63       70.32       70.00    
  32    70.00       71.72       73.27       74.64       75.86       76.92       77.83       78.61       79.24       79.74    
        80.10       80.34       80.45       80.43       80.29       80.01       79.73       79.45       79.17       78.87    
        78.58       78.28       77.99       77.69       77.38       77.08       76.78       76.47       76.17       75.87    
        75.57       75.27       74.97       74.68       74.39       74.10       73.81       73.52       73.24       72.96    
        72.68       72.40       72.11       71.83       71.53       71.24       70.93       70.63       70.31       70.00    
  33    70.00       71.72       73.26       74.63       75.84       76.90       77.81       78.58       79.21       79.71    
        80.07       80.31       80.42       80.40       80.26       79.98       79.71       79.43       79.14       78.85    
        78.56       78.27       77.97       77.68       77.38       77.08       76.78       76.48       76.18       75.88    
        75.58       75.28       74.99       74.69       74.40       74.11       73.82       73.54       73.25       72.97    
        72.68       72.40       72.11       71.82       71.53       71.23       70.93       70.62       70.31       70.00    
  34    70.00       71.71       73.24       74.61       75.82       76.87       77.78       78.55       79.18       79.68    
        80.05       80.29       80.40       80.38       80.23       79.96       79.69       79.41       79.12       78.84    
        78.55       78.26       77.96       77.67       77.37       77.08       76.78       76.48       76.18       75.89    
        75.59       75.29       75.00       74.71       74.41       74.12       73.83       73.55       73.26       72.97    
        72.69       72.40       72.11       71.82       71.52       71.22       70.92       70.62       70.31       70.00    
  35    70.00       71.71       73.24       74.60       75.80       76.86       77.76       78.53       79.16       79.66    
        80.02       80.26       80.37       80.36       80.21       79.94       79.66       79.39       79.11       78.82    
        78.53       78.25       77.95       77.66       77.37       77.07       76.78       76.48       76.19       75.89    
        75.60       75.30       75.01       74.72       74.42       74.13       73.84       73.55       73.27       72.98    
        72.69       72.40       72.11       71.81       71.52       71.22       70.92       70.61       70.31       70.00    
  36    70.00       71.70       73.23       74.59       75.79       76.84       77.75       78.51       79.14       79.64    
        80.00       80.24       80.35       80.34       80.19       79.92       79.65       79.37       79.09       78.81    
        78.52       78.23       77.95       77.66       77.36       77.07       76.78       76.48       76.19       75.90    
        75.60       75.31       75.02       74.72       74.43       74.14       73.85       73.56       73.27       72.98    
        72.69       72.40       72.11       71.81       71.52       71.22       70.92       70.61       70.31       70.00    
  37    70.00       71.70       73.22       74.58       75.78       76.83       77.73       78.50       79.12       79.62    
        79.99       80.22       80.33       80.32       80.17       79.90       79.63       79.35       79.08       78.79    
        78.51       78.23       77.94       77.65       77.36       77.07       76.78       76.49       76.19       75.90    
        75.61       75.32       75.02       74.73       74.44       74.15       73.86       73.57       73.28       72.99    
        72.69       72.40       72.11       71.81       71.51       71.22       70.91       70.61       70.31       70.00    
  38    70.00       71.70       73.22       74.57       75.77       76.82       77.72       78.48       79.11       79.61    
        79.97       80.21       80.32       80.30       80.16       79.89       79.62       79.34       79.06       78.78    
        78.50       78.22       77.93       77.64       77.36       77.07       76.78       76.49       76.20       75.90    
        75.61       75.32       75.03       74.74       74.45       74.15       73.86       73.57       73.28       72.99    
        72.70       72.40       72.11       71.81       71.51       71.21       70.91       70.61       70.31       70.00    
  39    70.00       71.69       73.21       74.57       75.76       76.81       77.71       78.47       79.10       79.59    
        79.96       80.19       80.30       80.29       80.15       79.88       79.60       79.33       79.05       78.77    
        78.49       78.21       77.93       77.64       77.35       77.07       76.78       76.49       76.20       75.91    
        75.62       75.33       75.03       74.74       74.45       74.16       73.87       73.58       73.28       72.99    
        72.70       72.40       72.11       71.81       71.51       71.21       70.91       70.61       70.31       70.00    
  40    70.00       71.69       73.21       74.56       75.75       76.80       77.70       78.46       79.09       79.58    
        79.95       80.18       80.29       80.28       80.13       79.87       79.59       79.32       79.04       78.77    
        78.48       78.20       77.92       77.64       77.35       77.06       76.78       76.49       76.20       75.91    
        75.62       75.33       75.04       74.75       74.46       74.16       73.87       73.58       73.29       73.00    
        72.70       72.41       72.11       71.81       71.51       71.21       70.91       70.61       70.30       70.00    
  41    70.00       71.69       73.21       74.56       75.75       76.79       77.69       78.45       79.08       79.57    
        79.94       80.17       80.28       80.27       80.12       79.86       79.58       79.31       79.04       78.76    
        78.48       78.20       77.92       77.63       77.35       77.06       76.78       76.49       76.20       75.91    
        75.62       75.33       75.04       74.75       74.46       74.17       73.88       73.58       73.29       73.00    
        72.70       72.41       72.11       71.81       71.51       71.21       70.91       70.61       70.30       70.00    
  42    70.00       71.69       73.20       74.55       75.74       76.79       77.68       78.44       79.07       79.56    
        79.93       80.16       80.27       80.26       80.12       79.85       79.58       79.30       79.03       78.75    
        78.47       78.19       77.91       77.63       77.35       77.06       76.77       76.49       76.20       75.91    
        75.62       75.33       75.04       74.75       74.46       74.17       73.88       73.59       73.29       73.00    
        72.71       72.41       72.11       71.81       71.52       71.21       70.91       70.61       70.30       70.00    
  43    70.00       71.69       73.20       74.55       75.74       76.78       77.68       78.44       79.06       79.56    
        79.92       80.16       80.27       80.25       80.11       79.84       79.57       79.30       79.02       78.75    
        78.47       78.19       77.91       77.63       77.34       77.06       76.77       76.49       76.20       75.91    
        75.63       75.34       75.05       74.76       74.47       74.17       73.88       73.59       73.30       73.00    
        72.71       72.41       72.11       71.82       71.52       71.21       70.91       70.61       70.30       70.00    
  44    70.00       71.69       73.20       74.54       75.73       76.78       77.67       78.43       79.06       79.55    
        79.91       80.15       80.26       80.24       80.10       79.83       79.56       79.29       79.02       78.74    
        78.46       78.18       77.90       77.62       77.34       77.06       76.77       76.49       76.20       75.91    
        75.63       75.34       75.05       74.76       74.47       74.18       73.88       73.59       73.30       73.00    
        72.71       72.41       72.11       71.82       71.52       71.22       70.91       70.61       70.30       70.00    
  45    70.00       71.69       73.20       74.54       75.73       76.77       77.67       78.43       79.05       79.54    
        79.91       80.14       80.25       80.24       80.10       79.83       79.56       79.29       79.01       78.74    
        78.46       78.18       77.90       77.62       77.34       77.06       76.77       76.49       76.20       75.92    
        75.63       75.34       75.05       74.76       74.47       74.18       73.89       73.59       73.30       73.01    
        72.71       72.41       72.12       71.82       71.52       71.22       70.91       70.61       70.31       70.00    
  46    70.00       71.69       73.20       74.54       75.73       76.77       77.67       78.42       79.05       79.54    
        79.90       80.14       80.25       80.23       80.09       79.82       79.55       79.28       79.01       78.73    
        78.46       78.18       77.90       77.62       77.34       77.06       76.77       76.49       76.20       75.92    
        75.63       75.34       75.05       74.76       74.47       74.18       73.89       73.59       73.30       73.01    
        72.71       72.41       72.12       71.82       71.52       71.22       70.91       70.61       70.31       70.00    
  47    70.00       71.69       73.19       74.54       75.73       76.77       77.66       78.42       79.04       79.54    
        79.90       80.14       80.25       80.23       80.09       79.82       79.55       79.28       79.01       78.73    
        78.45       78.18       77.90       77.62       77.34       77.06       76.77       76.49       76.20       75.92    
        75.63       75.34       75.05       74.76       74.47       74.18       73.89       73.60       73.30       73.01    
        72.71       72.41       72.12       71.82       71.52       71.22       70.91       70.61       70.31       70.00    
  48    70.00       71.68       73.19       74.54       75.73       76.77       77.66       78.42       79.04       79.53    
        79.90       80.13       80.24       80.23       80.09       79.82       79.55       79.28       79.00       78.73    
        78.45       78.18       77.90       77.62       77.34       77.05       76.77       76.49       76.20       75.92    
        75.63       75.34       75.05       74.76       74.47       74.18       73.89       73.60       73.30       73.01    
        72.71       72.42       72.12       71.82       71.52       71.22       70.91       70.61       70.31       70.00    
  49    70.00       71.68       73.19       74.54       75.73       76.76       77.66       78.42       79.04       79.53    
        79.90       80.13       80.24       80.23       80.08       79.82       79.55       79.28       79.00       78.73    
        78.45       78.17       77.90       77.62       77.34       77.05       76.77       76.49       76.20       75.92    
        75.63       75.34       75.05       74.76       74.47       74.18       73.89       73.60       73.30       73.01    
        72.71       72.42       72.12       71.82       71.52       71.22       70.91       70.61       70.31       70.00    
  50    70.00       71.68       73.19       74.54       75.73       76.76       77.66       78.42       79.04       79.53    
        79.89       80.13       80.24       80.22       80.08       79.82       79.55       79.28       79.00       78.73    
        78.45       78.17       77.90       77.62       77.34       77.05       76.77       76.49       76.20       75.92    
        75.63       75.34       75.05       74.76       74.47       74.18       73.89       73.60       73.30       73.01    
        72.71       72.42       72.12       71.82       71.52       71.22       70.91       70.61       70.31       70.00    
1
              HEAD IN LAYER   3 AT END OF TIME STEP   1 IN STRESS PERIOD    1
  ---------------------------------------------------------------------------

            1           2           3           4           5           6           7           8           9          10
           11          12          13          14          15          16          17          18          19          20
           21          22          23          24          25          26          27          28          29          30
[...]
        78.37       77.92       77.50       77.10       76.72       76.35       75.99       75.63       75.26       74.89    
        74.52       74.12       73.71       73.26       72.78       72.23       71.59       70.84       70.08       70.33    
        70.57       70.70       70.73       70.71       70.64       70.54       70.42       70.29       70.15       70.00    
  24    70.00       71.84       73.45       74.85       76.07       77.12       78.00       78.74       79.34       79.81    
        80.14       80.36       80.45       80.42       80.28       80.03       79.78       79.54       79.28       78.99    
        78.51       78.05       77.62       77.21       76.82       76.45       76.08       75.71       75.34       74.97    
        74.59       74.20       73.80       73.37       72.91       72.42       71.89       71.36       70.94       70.85    
        70.86       70.87       70.84       70.78       70.69       70.58       70.45       70.31       70.15       70.00    
  25    70.00       71.96       73.61       75.04       76.27       77.33       78.22       78.97       79.58       80.06    
        80.40       80.62       80.72       80.70       80.55       80.29       80.03       79.77       79.49       79.18    
        78.61       78.14       77.70       77.30       76.91       76.53       76.16       75.79       75.42       75.05    
        74.68       74.29       73.90       73.49       73.06       72.63       72.19       71.77       71.44       71.25    
        71.14       71.06       70.97       70.87       70.76       70.62       70.48       70.32       70.16       70.00    
  26    70.00       71.86       73.50       74.92       76.16       77.23       78.14       78.90       79.52       80.00    
        80.35       80.58       80.68       80.66       80.51       80.24       79.97       79.70       79.41       79.10    
        78.63       78.18       77.76       77.36       76.98       76.60       76.23       75.86       75.50       75.13    
        74.76       74.39       74.01       73.62       73.22       72.83       72.44       72.08       71.78       71.55    
        71.38       71.24       71.11       70.97       70.83       70.68       70.51       70.35       70.17       70.00    
  27    70.00       71.81       73.42       74.84       76.08       77.15       78.06       78.83       79.46       79.95    
        80.30       80.53       80.63       80.61       80.47       80.19       79.92       79.64       79.34       79.04    
        78.62       78.20       77.80       77.41       77.03       76.66       76.29       75.93       75.57       75.21    
        74.85       74.48       74.11       73.74       73.37       73.01       72.65       72.33       72.04       71.79    
        71.59       71.40       71.23       71.07       70.90       70.73       70.55       70.37       70.19       70.00    
  28    70.00       71.78       73.37       74.78       76.01       77.08       78.00       78.77       79.40       79.89    
        80.26       80.49       80.59       80.57       80.42       80.15       79.87       79.59       79.29       78.99    
        78.60       78.21       77.83       77.45       77.08       76.71       76.35       75.99       75.64       75.28    
        74.93       74.57       74.21       73.86       73.51       73.16       72.83       72.52       72.24       71.98    
        71.75       71.54       71.35       71.16       70.97       70.78       70.59       70.39       70.20       70.00    
  29    70.00       71.76       73.33       74.73       75.96       77.03       77.95       78.72       79.35       79.85    
        80.21       80.45       80.55       80.53       80.39       80.11       79.83       79.55       79.25       78.96    
        78.58       78.21       77.84       77.47       77.11       76.75       76.40       76.05       75.70       75.35    
        75.00       74.65       74.31       73.97       73.63       73.30       72.98       72.68       72.40       72.13    
        71.89       71.67       71.45       71.24       71.03       70.83       70.62       70.42       70.21       70.00    
  30    70.00       71.74       73.31       74.70       75.92       76.99       77.90       78.68       79.31       79.81    
        80.17       80.41       80.52       80.50       80.35       80.07       79.79       79.51       79.22       78.92    
        78.57       78.21       77.85       77.49       77.14       76.79       76.44       76.10       75.75       75.41    
        75.07       74.73       74.40       74.06       73.73       73.41       73.10       72.81       72.53       72.26    
        72.01       71.77       71.54       71.31       71.09       70.87       70.66       70.44       70.22       70.00    
  31    70.00       71.73       73.28       74.67       75.89       76.95       77.87       78.64       79.27       79.77    
        80.14       80.37       80.48       80.46       80.32       80.04       79.76       79.48       79.19       78.90    
        78.55       78.20       77.86       77.51       77.16       76.82       76.48       76.14       75.80       75.47    
        75.13       74.80       74.47       74.15       73.83       73.51       73.21       72.92       72.63       72.36    
        72.10       71.85       71.61       71.38       71.14       70.91       70.69       70.46       70.23       70.00    
  32    70.00       71.72       73.27       74.64       75.86       76.92       77.83       78.61       79.24       79.74    
        80.10       80.34       80.45       80.43       80.29       80.01       79.73       79.45       79.17       78.87    
        78.54       78.20       77.86       77.52       77.18       76.85       76.51       76.18       75.85       75.52    
        75.19       74.86       74.54       74.22       73.91       73.60       73.30       73.01       72.72       72.45    
        72.19       71.93       71.68       71.43       71.19       70.95       70.71       70.47       70.24       70.00    
  33    70.00       71.72       73.26       74.63       75.84       76.90       77.81       78.58       79.21       79.71    
        80.07       80.31       80.42       80.40       80.26       79.98       79.71       79.43       79.14       78.85    
        78.53       78.19       77.86       77.53       77.20       76.87       76.54       76.21       75.89       75.56    
        75.24       74.92       74.60       74.29       73.98       73.67       73.38       73.08       72.80       72.52    
        72.25       71.99       71.73       71.48       71.23       70.98       70.74       70.49       70.24       70.00    
  34    70.00       71.71       73.24       74.61       75.82       76.87       77.78       78.55       79.18       79.68    
        80.05       80.29       80.40       80.38       80.23       79.96       79.69       79.41       79.12       78.84    
        78.51       78.19       77.86       77.54       77.21       76.89       76.56       76.24       75.92       75.60    
        75.28       74.97       74.65       74.34       74.04       73.74       73.44       73.15       72.87       72.59    
        72.31       72.05       71.78       71.52       71.26       71.01       70.76       70.50       70.25       70.00    
  35    70.00       71.71       73.24       74.60       75.80       76.86       77.76       78.53       79.16       79.66    
        80.02       80.26       80.37       80.36       80.21       79.94       79.66       79.39       79.11       78.82    
        78.50       78.18       77.86       77.54       77.22       76.90       76.58       76.27       75.95       75.63    
        75.32       75.01       74.70       74.39       74.09       73.79       73.50       73.20       72.92       72.64    
        72.36       72.09       71.82       71.56       71.29       71.03       70.77       70.52       70.26       70.00    
  36    70.00       71.70       73.23       74.59       75.79       76.84       77.75       78.51       79.14       79.64    
        80.00       80.24       80.35       80.34       80.19       79.92       79.65       79.37       79.09       78.81    
        78.49       78.18       77.86       77.55       77.23       76.92       76.60       76.29       75.98       75.66    
        75.35       75.04       74.74       74.43       74.13       73.84       73.54       73.25       72.97       72.68    
        72.40       72.13       71.86       71.59       71.32       71.05       70.79       70.53       70.26       70.00    
  37    70.00       71.70       73.22       74.58       75.78       76.83       77.73       78.50       79.12       79.62    
        79.99       80.22       80.33       80.32       80.17       79.90       79.63       79.35       79.08       78.79    
        78.49       78.18       77.86       77.55       77.24       76.93       76.62       76.31       76.00       75.69    
        75.38       75.08       74.77       74.47       74.17       73.88       73.58       73.29       73.01       72.72    
        72.44       72.16       71.89       71.61       71.34       71.07       70.80       70.54       70.27       70.00    
  38    70.00       71.70       73.22       74.57       75.77       76.82       77.72       78.48       79.11       79.61    
        79.97       80.21       80.32       80.30       80.16       79.89       79.62       79.34       79.06       78.78    
        78.48       78.17       77.86       77.56       77.25       76.94       76.63       76.32       76.02       75.71    
        75.41       75.10       74.80       74.50       74.20       73.91       73.62       73.33       73.04       72.75    
        72.47       72.19       71.91       71.64       71.36       71.09       70.81       70.54       70.27       70.00    
  39    70.00       71.69       73.21       74.57       75.76       76.81       77.71       78.47       79.10       79.59    
        79.96       80.19       80.30       80.29       80.15       79.88       79.60       79.33       79.05       78.77    
        78.47       78.17       77.86       77.56       77.25       76.95       76.64       76.34       76.03       75.73    
        75.43       75.13       74.83       74.53       74.23       73.94       73.65       73.36       73.07       72.78    
        72.50       72.21       71.93       71.66       71.38       71.10       70.82       70.55       70.27       70.00    
  40    70.00       71.69       73.21       74.56       75.75       76.80       77.70       78.46       79.09       79.58    
        79.95       80.18       80.29       80.28       80.13       79.87       79.59       79.32       79.04       78.77    
        78.47       78.16       77.86       77.56       77.26       76.96       76.65       76.35       76.05       75.75    
        75.45       75.15       74.85       74.55       74.26       73.96       73.67       73.38       73.09       72.80    
        72.52       72.23       71.95       71.67       71.39       71.11       70.83       70.56       70.28       70.00    
  41    70.00       71.69       73.21       74.55       75.75       76.79       77.69       78.45       79.08       79.57    
        79.94       80.17       80.28       80.27       80.12       79.86       79.58       79.31       79.04       78.76    
        78.46       78.16       77.86       77.56       77.26       76.96       76.66       76.36       76.06       75.76    
        75.46       75.16       74.87       74.57       74.28       73.98       73.69       73.40       73.11       72.82    
        72.54       72.25       71.97       71.69       71.40       71.12       70.84       70.56       70.28       70.00    
  42    70.00       71.69       73.20       74.55       75.74       76.78       77.68       78.44       79.07       79.56    
        79.93       80.16       80.27       80.26       80.12       79.85       79.58       79.30       79.03       78.75    
        78.46       78.16       77.86       77.56       77.27       76.97       76.67       76.37       76.07       75.77    
        75.48       75.18       74.88       74.59       74.29       74.00       73.71       73.42       73.13       72.84    
        72.55       72.27       71.98       71.70       71.41       71.13       70.85       70.56       70.28       70.00    
  43    70.00       71.69       73.20       74.55       75.74       76.78       77.68       78.44       79.06       79.55    
        79.92       80.16       80.27       80.25       80.11       79.84       79.57       79.30       79.02       78.75    
        78.45       78.16       77.86       77.56       77.27       76.97       76.67       76.38       76.08       75.78    
        75.49       75.19       74.90       74.60       74.31       74.02       73.72       73.43       73.14       72.85    
        72.57       72.28       71.99       71.71       71.42       71.14       70.85       70.57       70.28       70.00    
  44    70.00       71.69       73.20       74.54       75.73       76.78       77.67       78.43       79.06       79.55    
        79.91       80.15       80.26       80.24       80.10       79.83       79.56       79.29       79.02       78.74    
        78.45       78.15       77.86       77.57       77.27       76.97       76.68       76.38       76.09       75.79    
        75.50       75.20       74.91       74.61       74.32       74.03       73.74       73.45       73.16       72.87    
        72.58       72.29       72.00       71.71       71.43       71.14       70.86       70.57       70.29       70.00    
  45    70.00       71.69       73.20       74.54       75.73       76.77       77.67       78.43       79.05       79.54    
        79.91       80.14       80.25       80.24       80.10       79.83       79.56       79.29       79.01       78.74    
        78.45       78.15       77.86       77.57       77.27       76.98       76.68       76.39       76.09       75.80    
        75.50       75.21       74.92       74.62       74.33       74.04       73.75       73.46       73.16       72.88    
        72.59       72.30       72.01       71.72       71.43       71.15       70.86       70.57       70.29       70.00    
  46    70.00       71.69       73.20       74.54       75.73       76.77       77.67       78.42       79.05       79.54    
        79.90       80.14       80.25       80.23       80.09       79.82       79.55       79.28       79.01       78.73    
        78.44       78.15       77.86       77.57       77.27       76.98       76.69       76.39       76.10       75.80    
        75.51       75.22       74.92       74.63       74.34       74.05       73.75       73.46       73.17       72.88    
        72.59       72.30       72.02       71.73       71.44       71.15       70.86       70.58       70.29       70.00    
  47    70.00       71.68       73.19       74.54       75.73       76.77       77.66       78.42       79.04       79.54    
        79.90       80.14       80.25       80.23       80.09       79.82       79.55       79.28       79.01       78.73    
        78.44       78.15       77.86       77.57       77.27       76.98       76.69       76.40       76.10       75.81    
        75.52       75.22       74.93       74.64       74.34       74.05       73.76       73.47       73.18       72.89    
        72.60       72.31       72.02       71.73       71.44       71.15       70.86       70.58       70.29       70.00    
  48    70.00       71.68       73.19       74.54       75.73       76.77       77.66       78.42       79.04       79.53    
        79.90       80.13       80.24       80.23       80.09       79.82       79.55       79.28       79.00       78.73    
        78.44       78.15       77.86       77.57       77.27       76.98       76.69       76.40       76.10       75.81    
        75.52       75.23       74.93       74.64       74.35       74.06       73.77       73.47       73.18       72.89    
        72.60       72.31       72.02       71.73       71.44       71.16       70.87       70.58       70.29       70.00    
  49    70.00       71.68       73.19       74.54       75.73       76.76       77.66       78.42       79.04       79.53    
        79.90       80.13       80.24       80.23       80.08       79.82       79.55       79.28       79.00       78.73    
        78.44       78.15       77.86       77.57       77.28       76.98       76.69       76.40       76.11       75.81    
        75.52       75.23       74.94       74.64       74.35       74.06       73.77       73.48       73.19       72.90    
        72.61       72.32       72.03       71.74       71.45       71.16       70.87       70.58       70.29       70.00    
  50    70.00       71.68       73.19       74.54       75.72       76.76       77.66       78.42       79.04       79.53    
        79.89       80.13       80.24       80.22       80.08       79.82       79.55       79.28       79.00       78.73    
        78.44       78.15       77.86       77.57       77.28       76.98       76.69       76.40       76.11       75.81    
        75.52       75.23       74.94       74.65       74.35       74.06       73.77       73.48       73.19       72.90    
        72.61       72.32       72.03       71.74       71.45       71.16       70.87       70.58       70.29       70.00    

 HEAD WILL BE SAVED ON UNIT   51 AT END OF TIME STEP    1, STRESS PERIOD    1

 DRAWDOWN WILL BE SAVED ON UNIT   52 AT END OF TIME STEP    1, STRESS PERIOD    1
1
  VOLUMETRIC BUDGET FOR ENTIRE MODEL AT END OF TIME STEP    1, STRESS PERIOD   1
  ------------------------------------------------------------------------------

     CUMULATIVE VOLUMES      L**3       RATES FOR THIS TIME STEP      L**3/T
     ------------------                 ------------------------

           IN:                                      IN:
           ---                                      ---
             STORAGE =           0.0000               STORAGE =           0.0000
       CONSTANT HEAD =           0.0000         CONSTANT HEAD =           0.0000
               WELLS =         375.0000                 WELLS =         375.0000
       RIVER LEAKAGE =        4218.1069         RIVER LEAKAGE =        4218.1069
                  ET =           0.0000                    ET =           0.0000
            RECHARGE =       35599.9961              RECHARGE =       35599.9961

            TOTAL IN =       40193.1016              TOTAL IN =       40193.1016

          OUT:                                     OUT:
          ----                                     ----
             STORAGE =           0.0000               STORAGE =           0.0000
       CONSTANT HEAD =       33847.8516         CONSTANT HEAD =       33847.8516
               WELLS =        6000.0000                 WELLS =        6000.0000
       RIVER LEAKAGE =          80.4905         RIVER LEAKAGE =          80.4905
                  ET =         264.7274                    ET =         264.7274
            RECHARGE =           0.0000              RECHARGE =           0.0000

           TOTAL OUT =       40193.0703             TOTAL OUT =       40193.0703

            IN - OUT =       3.1250E-02              IN - OUT =       3.1250E-02

 PERCENT DISCREPANCY =           0.00     PERCENT DISCREPANCY =           0.00






         TIME SUMMARY AT END OF TIME STEP    1 IN STRESS PERIOD    1
                    SECONDS     MINUTES      HOURS       DAYS        YEARS
                    -----------------------------------------------------------
   TIME STEP LENGTH  86400.      1440.0      24.000      1.0000     2.73785E-03
 STRESS PERIOD TIME  86400.      1440.0      24.000      1.0000     2.73785E-03
         TOTAL TIME  86400.      1440.0      24.000      1.0000     2.73785E-03
1

 Run end date and time (yyyy/mm/dd hh:mm:ss): 2026/02/25  7:18:31
 Elapsed run time:  8.767 Seconds

