                                  MODFLOW-2005     
      U.S. GEOLOGICAL SURVEY MODULAR FINITE-DIFFERENCE GROUND-WATER FLOW MODEL
                            VERSION 1.12.00 2/3/2017

 LIST FILE: static_ensemble_1111111.list
                         UNIT    2

 OPENING static_ensemble_1111111.dis
 FILE TYPE:DIS   UNIT   11   STATUS:OLD    
 FORMAT:FORMATTED              ACCESS:SEQUENTIAL          

 OPENING static_ensemble_1111111.bas
 FILE TYPE:BAS6   UNIT   13   STATUS:OLD    
 FORMAT:FORMATTED              ACCESS:SEQUENTIAL          

 OPENING static_ensemble_1111111.lpf
 FILE TYPE:LPF   UNIT   15   STATUS:OLD    
 FORMAT:FORMATTED              ACCESS:SEQUENTIAL          

 OPENING static_ensemble_1111111.evt
 FILE TYPE:EVT   UNIT   22   STATUS:OLD    
 FORMAT:FORMATTED              ACCESS:SEQUENTIAL          

 OPENING static_ensemble_1111111.rch
 FILE TYPE:RCH   UNIT   19   STATUS:OLD    
 FORMAT:FORMATTED              ACCESS:SEQUENTIAL          

 OPENING static_ensemble_1111111.riv
 FILE TYPE:RIV   UNIT   18   STATUS:OLD    
 FORMAT:FORMATTED              ACCESS:SEQUENTIAL          

 OPENING static_ensemble_1111111.wel
 FILE TYPE:WEL   UNIT   20   STATUS:OLD    
 FORMAT:FORMATTED              ACCESS:SEQUENTIAL          

 OPENING static_ensemble_1111111.oc
 FILE TYPE:OC   UNIT   14   STATUS:OLD    
 FORMAT:FORMATTED              ACCESS:SEQUENTIAL          

 OPENING static_ensemble_1111111.pcg
 FILE TYPE:PCG   UNIT   27   STATUS:OLD    
 FORMAT:FORMATTED              ACCESS:SEQUENTIAL          

 OPENING static_ensemble_1111111.cbc
 FILE TYPE:DATA(BINARY)   UNIT   53   STATUS:REPLACE
 FORMAT:UNFORMATTED            ACCESS:STREAM              

 OPENING static_ensemble_1111111.hds
 FILE TYPE:DATA(BINARY)   UNIT   51   STATUS:REPLACE
 FORMAT:UNFORMATTED            ACCESS:STREAM              

 OPENING static_ensemble_1111111.ddn
 FILE TYPE:DATA(BINARY)   UNIT   52   STATUS:REPLACE
 FORMAT:UNFORMATTED            ACCESS:STREAM              

 BAS -- BASIC PACKAGE, VERSION 7, 5/2/2005 INPUT READ FROM UNIT   13
 
 MODFLOW was compiled using mixed precision
 Precision of REAL variables:           6
 Precision of DOUBLE PRECISION variables:          15

 DISCRETIZATION INPUT DATA READ FROM UNIT   11
 # DIS package for MODFLOW-2005 generated by Flopy 3.10.0
    3 LAYERS        50 ROWS        50 COLUMNS
    1 STRESS PERIOD(S) IN SIMULATION
 MODEL TIME UNIT IS DAYS
 MODEL LENGTH UNIT IS METERS
  Confining bed flag for each layer:
   0   0   0

                     DELR =   1000.00    

                     DELC =   1000.00    



           TOP ELEVATION OF LAYER 1
 READING ON UNIT   11 WITH FORMAT: (50E15.6)           



             MODEL LAYER BOTTOM EL. FOR LAYER   1
 READING ON UNIT   11 WITH FORMAT: (50E15.6)           



             MODEL LAYER BOTTOM EL. FOR LAYER   2
 READING ON UNIT   11 WITH FORMAT: (50E15.6)           



             MODEL LAYER BOTTOM EL. FOR LAYER   3
 READING ON UNIT   11 WITH FORMAT: (50E15.6)           


 STRESS PERIOD     LENGTH       TIME STEPS     MULTIPLIER FOR DELT    SS FLAG
 ----------------------------------------------------------------------------
        1         1.000000          1                    1.000         SS

 STEADY-STATE SIMULATION



 
 # BAS6 package for MODFLOW-2005 generated by Flopy 3.10.0                       
 THE FREE FORMAT OPTION HAS BEEN SELECTED



                     BOUNDARY ARRAY FOR LAYER   1
 READING ON UNIT   13 WITH FORMAT: (50I10)             



                     BOUNDARY ARRAY FOR LAYER   2
 READING ON UNIT   13 WITH FORMAT: (50I10)             



                     BOUNDARY ARRAY FOR LAYER   3
 READING ON UNIT   13 WITH FORMAT: (50I10)             

 AQUIFER HEAD WILL BE SET TO  -999.99     AT ALL NO-FLOW NODES (IBOUND=0).



                       INITIAL HEAD FOR LAYER   1
 READING ON UNIT   13 WITH FORMAT: (50E15.6)           



                       INITIAL HEAD FOR LAYER   2
 READING ON UNIT   13 WITH FORMAT: (50E15.6)           



                       INITIAL HEAD FOR LAYER   3
 READING ON UNIT   13 WITH FORMAT: (50E15.6)           
 # OC package for MODFLOW-2005 generated by Flopy 3.10.0

 OUTPUT CONTROL IS SPECIFIED ONLY AT TIME STEPS FOR WHICH OUTPUT IS DESIRED
 COMPACT CELL-BY-CELL BUDGET FILES WILL BE WRITTEN
 AUXILIARY DATA WILL BE SAVED IN CELL-BY-CELL BUDGET FILES
 HEAD PRINT FORMAT CODE IS   0    DRAWDOWN PRINT FORMAT CODE IS   0
 HEADS WILL BE SAVED ON UNIT   51    DRAWDOWNS WILL BE SAVED ON UNIT   52

 LPF -- LAYER-PROPERTY FLOW PACKAGE, VERSION 7, 5/2/2005
         INPUT READ FROM UNIT   15
 # LPF package for MODFLOW-2005 generated by Flopy 3.10.0
 CELL-BY-CELL FLOWS WILL BE SAVED ON UNIT   53
 HEAD AT CELLS THAT CONVERT TO DRY= -1.00000E+30
 No named parameters
 STORAGECOEFFICIENT OPTION:
 Read storage coefficient rather than specific storage

   LAYER FLAGS:
 LAYER       LAYTYP        LAYAVG         CHANI        LAYVKA        LAYWET
 ---------------------------------------------------------------------------
    1             1             0     1.000E+00             0             0
    2             1             0     1.000E+00             0             0
    3             1             0     1.000E+00             0             0

   INTERPRETATION OF LAYER FLAGS:
                        INTERBLOCK     HORIZONTAL    DATA IN
         LAYER TYPE   TRANSMISSIVITY   ANISOTROPY   ARRAY VKA   WETTABILITY
 LAYER      (LAYTYP)      (LAYAVG)       (CHANI)      (LAYVKA)      (LAYWET)
 ---------------------------------------------------------------------------
    1   CONVERTIBLE      HARMONIC     1.000E+00    VERTICAL K  NON-WETTABLE
    2   CONVERTIBLE      HARMONIC     1.000E+00    VERTICAL K  NON-WETTABLE
    3   CONVERTIBLE      HARMONIC     1.000E+00    VERTICAL K  NON-WETTABLE

 WETTING CAPABILITY IS NOT ACTIVE IN ANY LAYER



              HYD. COND. ALONG ROWS FOR LAYER   1
 READING ON UNIT   15 WITH FORMAT: (50E15.6)           



                VERTICAL HYD. COND. FOR LAYER   1
 READING ON UNIT   15 WITH FORMAT: (50E15.6)           



              HYD. COND. ALONG ROWS FOR LAYER   2
 READING ON UNIT   15 WITH FORMAT: (50E15.6)           



                VERTICAL HYD. COND. FOR LAYER   2
 READING ON UNIT   15 WITH FORMAT: (50E15.6)           



              HYD. COND. ALONG ROWS FOR LAYER   3
 READING ON UNIT   15 WITH FORMAT: (50E15.6)           



                VERTICAL HYD. COND. FOR LAYER   3
 READING ON UNIT   15 WITH FORMAT: (50E15.6)           

 WEL -- WELL PACKAGE, VERSION 7, 5/2/2005 INPUT READ FROM UNIT   20
 # WEL package for MODFLOW-2005 generated by Flopy 3.10.0
 No named parameters
 MAXIMUM OF      3 ACTIVE WELLS AT ONE TIME


     0 Well parameters

 RIV -- RIVER PACKAGE, VERSION 7, 5/2/2005 INPUT READ FROM UNIT   18
 # RIV package for MODFLOW-2005 generated by Flopy 3.10.0
 No named parameters
 MAXIMUM OF     49 ACTIVE RIVER REACHES AT ONE TIME
 CELL-BY-CELL FLOWS WILL BE SAVED ON UNIT   53


     0 River parameters

 EVT -- EVAPOTRANSPIRATION PACKAGE, VERSION 7, 5/2/2005
         INPUT READ FROM UNIT   22
 # EVT package for MODFLOW-2005 generated by Flopy 3.10.0
 No named parameters
 OPTION 3 -- EVAPOTRANSPIRATION FROM HIGHEST ACTIVE NODE IN EACH VERTICAL COLUMN
 CELL-BY-CELL FLOWS WILL BE SAVED ON UNIT   53


     0 Evapotranspiration parameters

 RCH -- RECHARGE PACKAGE, VERSION 7, 5/2/2005 INPUT READ FROM UNIT   19
 # RCH package for MODFLOW-2005 generated by Flopy 3.10.0
 No named parameters
 OPTION 3 -- RECHARGE TO HIGHEST ACTIVE NODE IN EACH VERTICAL COLUMN
 CELL-BY-CELL FLOWS WILL BE SAVED ON UNIT   53


     0 Recharge parameters

 PCG -- CONJUGATE-GRADIENT SOLUTION PACKAGE, VERSION 7, 5/2/2005
 # PCG package for MODFLOW-2005 generated by Flopy 3.10.0
 MAXIMUM OF   5000 CALLS OF SOLUTION ROUTINE
 MAXIMUM OF    500 INTERNAL ITERATIONS PER CALL TO SOLUTION ROUTINE
 MATRIX PRECONDITIONING TYPE :    1



                                    SOLUTION BY THE CONJUGATE-GRADIENT METHOD
                                   -------------------------------------------
                    MAXIMUM NUMBER OF CALLS TO PCG ROUTINE =     5000
                        MAXIMUM ITERATIONS PER CALL TO PCG =      500
                               MATRIX PRECONDITIONING TYPE =        1
        RELAXATION FACTOR (ONLY USED WITH PRECOND. TYPE 1) =    0.97000E+00
 PARAMETER OF POLYNOMIAL PRECOND. = 2 (2) OR IS CALCULATED :        0
                         HEAD CHANGE CRITERION FOR CLOSURE =    0.10000E-04
                     RESIDUAL CHANGE CRITERION FOR CLOSURE =    0.10000E-04
            PCG HEAD AND RESIDUAL CHANGE PRINTOUT INTERVAL =      999
     PRINTING FROM SOLVER IS LIMITED(1) OR SUPPRESSED (>1) =        3
                            STEADY-STATE DAMPING PARAMETER =    0.10000E-01
                               TRANSIENT DAMPING PARAMETER =    0.10000E-01
1
                            STRESS PERIOD NO.    1, LENGTH =   1.000000    
                            -----------------------------------------------

                              NUMBER OF TIME STEPS =     1

                               MULTIPLIER FOR DELT =     1.000

                            INITIAL TIME STEP SIZE =   1.000000    

 WELL NO.  LAYER   ROW   COL   STRESS RATE         
 --------------------------------------------------
      1      3     22     39      -1500.    
      2      1     13     15      -4500.    
      3      1     25     26       375.0    

      3 WELLS

 REACH NO.  LAYER   ROW   COL     STAGE      CONDUCTANCE     BOTTOM EL.         
 -------------------------------------------------------------------------------
      1      1     25      2       100.5           50.00           98.00    
      2      1     25      3       99.50           50.00           97.00    
      3      1     25      4       98.50           50.00           96.00    
      4      1     25      5       97.50           50.00           95.00    
      5      1     25      6       96.50           50.00           94.00    
      6      1     25      7       95.50           50.00           93.00    
      7      1     25      8       94.50           50.00           92.00    
      8      1     25      9       93.50           50.00           91.00    
      9      1     25     10       92.50           50.00           90.00    
     10      1     25     11       91.50           50.00           89.00    
     11      1     25     12       90.50           50.00           88.00    
     12      1     25     13       89.50           50.00           87.00    
     13      1     25     14       88.50           50.00           86.00    
     14      1     25     15       87.50           50.00           85.00    
     15      1     25     16       86.50           50.00           84.00    
     16      1     25     17       85.50           50.00           83.00    
     17      1     25     18       84.50           50.00           82.00    
     18      1     25     19       83.50           50.00           81.00    
     19      1     25     20       82.50           50.00           80.00    
     20      1     25     21       81.50           50.00           79.00    
     21      1     25     22       80.50           50.00           78.00    
     22      1     25     23       79.50           50.00           77.00    
     23      1     25     24       78.50           50.00           76.00    
     24      1     25     25       77.50           50.00           75.00    
     25      1     25     26       77.40           50.00           74.90    
     26      1     25     27       77.30           50.00           74.80    
     27      1     25     28       77.20           50.00           74.70    
     28      1     25     29       77.10           50.00           74.60    
     29      1     25     30       77.00           50.00           74.50    
     30      1     25     31       76.90           50.00           74.40    
     31      1     25     32       76.80           50.00           74.30    
     32      1     25     33       76.70           50.00           74.20    
     33      1     25     34       76.60           50.00           74.10    
     34      1     25     35       76.50           50.00           74.00    
     35      1     25     36       76.40           50.00           73.90    
     36      1     25     37       76.30           50.00           73.80    
     37      1     25     38       76.20           50.00           73.70    
     38      1     25     39       76.10           50.00           73.60    
     39      1     25     40       76.00           50.00           73.50    
     40      1     25     41       75.90           50.00           73.40    
     41      1     25     42       75.80           50.00           73.30    
     42      1     25     43       75.70           50.00           73.20    
     43      1     25     44       75.60           50.00           73.10    
     44      1     25     45       75.50           50.00           73.00    
     45      1     25     46       75.40           50.00           72.90    
     46      1     25     47       75.30           50.00           72.80    
     47      1     25     48       75.20           50.00           72.70    
     48      1     25     49       75.10           50.00           72.60    
     49      1     25     50       75.00           50.00           72.50    

     49 RIVER REACHES



                         ET SURFACE
 READING ON UNIT   22 WITH FORMAT: (50E15.6)           



            EVAPOTRANSPIRATION RATE
 READING ON UNIT   22 WITH FORMAT: (50E15.6)           

         EXTINCTION DEPTH =   10.0000    



                           RECHARGE
 READING ON UNIT   19 WITH FORMAT: (50E15.6)           
 
 SOLVING FOR HEAD 

 OUTPUT CONTROL FOR STRESS PERIOD    1   TIME STEP    1
    SAVE HEAD FOR ALL LAYERS
    SAVE DRAWDOWN FOR ALL LAYERS
    SAVE BUDGET
    PRINT HEAD FOR ALL LAYERS
    PRINT BUDGET
 UBDSV2 SAVING "   CONSTANT HEAD" ON UNIT  53 AT TIME STEP  1, STRESS PERIOD   1
 UBDSV1 SAVING "FLOW RIGHT FACE " ON UNIT  53 AT TIME STEP  1, STRESS PERIOD   1
 UBDSV1 SAVING "FLOW FRONT FACE " ON UNIT  53 AT TIME STEP  1, STRESS PERIOD   1
 UBDSV1 SAVING "FLOW LOWER FACE " ON UNIT  53 AT TIME STEP  1, STRESS PERIOD   1
 UBDSV4 SAVING "   RIVER LEAKAGE" ON UNIT  53 AT TIME STEP  1, STRESS PERIOD   1
 UBDSV3 SAVING "              ET" ON UNIT  53 AT TIME STEP  1, STRESS PERIOD   1
 UBDSV3 SAVING "        RECHARGE" ON UNIT  53 AT TIME STEP  1, STRESS PERIOD   1
1
              HEAD IN LAYER   1 AT END OF TIME STEP   1 IN STRESS PERIOD    1
  ---------------------------------------------------------------------------

            1           2           3           4           5           6           7           8           9          10
           11          12          13          14          15          16          17          18          19          20
           21          22          23          24          25          26          27          28          29          30
           31          32          33          34          35          36          37          38          39          40
           41          42          43          44          45          46          47          48          49          50
 ........................................................................................................................
   1  -1000.0     -1000.0     -1000.0     -1000.0     -1000.0     -1000.0     -1000.0     -1000.0     -1000.0     -1000.0    
      -1000.0     -1000.0     -1000.0     -1000.0     -1000.0     -1000.0     -1000.0     -1000.0     -1000.0     -1000.0    
      -1000.0     -1000.0     -1000.0     -1000.0     -1000.0     -1000.0     -1000.0     -1000.0     -1000.0     -1000.0    
      -1000.0     -1000.0     -1000.0     -1000.0     -1000.0     -1000.0     -1000.0     -1000.0     -1000.0     -1000.0    
      -1000.0     -1000.0     -1000.0     -1000.0     -1000.0     -1000.0     -1000.0     -1000.0     -1000.0       70.00    
   2  -1000.0     -1000.0     -1000.0     -1000.0     -1000.0       79.34       79.22       79.03       78.81       78.56    
        78.38       78.17       77.94       77.69       77.43       77.17       76.93       76.70       76.49       76.29    
        76.11       75.95       75.78       75.62       75.46       75.29       75.12       74.95       74.77       74.59    
        74.40       74.21       74.01       73.80       73.59       73.38       73.16       72.94       72.71       72.48    
        72.25       72.01       71.77       71.53       71.28       71.03       70.78       70.52       70.26       70.00    
   3  -1000.0     -1000.0     -1000.0     -1000.0       79.53       79.40       79.23       79.03       78.78       78.59    
        78.39       78.16       77.92       77.67       77.42       77.15       76.91       76.68       76.47       76.28    
        76.11       75.94       75.78       75.62       75.46       75.29       75.13       74.95       74.78       74.59    
        74.40       74.21       74.01       73.81       73.60       73.39       73.17       72.95       72.72       72.49    
        72.25       72.02       71.78       71.53       71.28       71.03       70.78       70.52       70.26       70.00    
   4  -1000.0     -1000.0     -1000.0       79.73       79.60       79.44       79.24       79.01       78.82       78.61    
        78.39       78.15       77.90       77.64       77.38       77.11       76.87       76.65       76.45       76.26    
        76.09       75.93       75.78       75.62       75.46       75.30       75.13       74.96       74.79       74.60    
        74.42       74.22       74.02       73.82       73.61       73.40       73.18       72.95       72.73       72.50    
        72.26       72.02       71.78       71.54       71.29       71.04       70.78       70.52       70.26       70.00    
   5  -1000.0     -1000.0       79.93       79.81       79.65       79.47       79.25       79.06       78.85       78.62    
        78.37       78.11       77.85       77.58       77.31       77.05       76.81       76.60       76.41       76.23    
        76.07       75.92       75.77       75.62       75.47       75.31       75.15       74.98       74.80       74.62    
        74.43       74.24       74.04       73.84       73.63       73.41       73.19       72.97       72.74       72.51    
        72.27       72.03       71.79       71.54       71.29       71.04       70.79       70.53       70.26       70.00    
   6  -1000.0       80.07       79.99       79.86       79.69       79.49       79.30       79.10       78.86       78.61    
        78.35       78.06       77.78       77.49       77.22       76.96       76.73       76.53       76.35       76.19    
        76.05       75.91       75.77       75.63       75.48       75.33       75.17       75.00       74.83       74.65    
        74.46       74.27       74.07       73.86       73.65       73.43       73.21       72.99       72.76       72.53    
        72.29       72.05       71.80       71.55       71.30       71.05       70.79       70.53       70.27       70.00    
   7  -1000.0       80.11       80.03       79.90       79.73       79.55       79.36       79.13       78.88       78.60    
        78.30       77.99       77.68       77.37       77.09       76.83       76.61       76.44       76.28       76.14    
        76.02       75.90       75.78       75.64       75.50       75.36       75.20       75.03       74.86       74.68    
        74.49       74.30       74.10       73.89       73.68       73.46       73.24       73.01       72.78       72.55    
        72.31       72.06       71.82       71.57       71.32       71.06       70.80       70.54       70.27       70.00    
   8  -1000.0       80.15       80.08       79.95       79.80       79.62       79.41       79.17       78.89       78.58    
        78.25       77.90       77.54       77.20       76.90       76.65       76.46       76.32       76.20       76.09    
        76.00       75.90       75.79       75.67       75.53       75.39       75.24       75.07       74.90       74.72    
        74.53       74.34       74.13       73.92       73.71       73.49       73.27       73.04       72.81       72.57    
        72.33       72.09       71.84       71.59       71.33       71.07       70.81       70.54       70.27       70.00    
   9  -1000.0       80.21       80.14       80.03       79.88       79.69       79.47       79.21       78.91       78.57    
        78.19       77.78       77.36       76.97       76.64       76.41       76.27       76.18       76.11       76.04    
        75.98       75.90       75.81       75.70       75.57       75.43       75.28       75.12       74.95       74.77    
        74.58       74.38       74.18       73.97       73.75       73.53       73.31       73.08       72.84       72.60    
        72.36       72.11       71.86       71.61       71.35       71.09       70.82       70.55       70.28       70.00    
  10  -1000.0       80.30       80.23       80.12       79.97       79.78       79.55       79.27       78.94       78.56    
        78.12       77.64       77.13       76.64       76.25       76.07       76.02       76.03       76.03       76.00    
        75.98       75.92       75.85       75.75       75.63       75.49       75.34       75.18       75.01       74.83    
        74.63       74.44       74.23       74.02       73.80       73.58       73.35       73.12       72.88       72.64    
        72.39       72.14       71.89       71.63       71.37       71.10       70.83       70.56       70.28       70.00    
  11  -1000.0       80.38       80.33       80.22       80.08       79.88       79.64       79.34       78.99       78.57    
        78.08       77.51       76.86       76.17       75.62       75.59       75.73       75.87       75.96       75.99    
        76.00       75.97       75.91       75.81       75.70       75.57       75.42       75.25       75.08       74.89    
        74.70       74.50       74.29       74.07       73.85       73.63       73.40       73.16       72.92       72.68    
        72.43       72.18       71.92       71.66       71.39       71.12       70.85       70.57       70.29       70.00    
  12  -1000.0       80.50       80.45       80.35       80.20       80.01       79.76       79.45       79.08       78.64    
        78.09       77.42       76.58       75.53       74.43       74.94       75.44       75.77       75.95       76.03    
        76.07       76.05       75.99       75.91       75.79       75.66       75.51       75.34       75.16       74.97    
        74.78       74.57       74.36       74.14       73.92       73.69       73.45       73.22       72.97       72.73    
        72.48       72.22       71.96       71.70       71.42       71.15       70.87       70.58       70.29       70.00    
  13  -1000.0       80.64       80.59       80.50       80.35       80.16       79.91       79.60       79.23       78.77    
        78.20       77.48       76.48       74.88       71.50       74.28       75.33       75.81       76.04       76.14    
        76.18       76.17       76.11       76.02       75.90       75.77       75.61       75.44       75.26       75.06    
        74.86       74.65       74.43       74.21       73.99       73.75       73.52       73.28       73.03       72.78    
        72.53       72.27       72.01       71.74       71.46       71.18       70.89       70.60       70.30       70.00    
  14  -1000.0       80.81       80.76       80.67       80.53       80.33       80.09       79.79       79.42       78.98    
        78.44       77.77       76.93       75.87       74.78       75.28       75.78       76.09       76.27       76.33    
        76.36       76.34       76.27       76.17       76.04       75.89       75.73       75.55       75.36       75.16    
        74.95       74.74       74.52       74.29       74.06       73.83       73.59       73.35       73.10       72.85    
        72.59       72.33       72.06       71.78       71.50       71.21       70.92       70.62       70.31       70.00    
  15  -1000.0       81.00       80.95       80.86       80.72       80.54       80.30       80.02       79.67       79.25    
        78.77       78.19       77.54       76.86       76.31       76.27       76.40       76.52       76.59       76.60    
        76.59       76.54       76.45       76.34       76.20       76.04       75.86       75.68       75.48       75.27    
        75.06       74.84       74.61       74.38       74.15       73.91       73.67       73.42       73.17       72.92    
        72.66       72.39       72.12       71.84       71.55       71.26       70.95       70.64       70.32       70.00    
  16  -1000.0       81.20       81.16       81.07       80.94       80.77       80.55       80.28       79.95       79.58    
        79.15       78.67       78.16       77.66       77.27       77.08       77.02       77.00       76.98       76.92    
        76.87       76.78       76.67       76.53       76.37       76.20       76.01       75.81       75.61       75.39    
        75.17       74.95       74.72       74.48       74.24       74.00       73.76       73.51       73.26       73.00    
        72.74       72.47       72.19       71.91       71.61       71.31       70.99       70.67       70.34       70.00    
  17  -1000.0       81.43       81.39       81.31       81.18       81.02       80.81       80.56       80.26       79.93    
        79.55       79.14       78.73       78.33       77.99       77.75       77.60       77.49       77.39       77.27    
        77.17       77.05       76.91       76.75       76.57       76.37       76.17       75.96       75.74       75.52    
        75.29       75.06       74.83       74.59       74.35       74.10       73.86       73.61       73.35       73.09    
        72.83       72.56       72.28       71.99       71.68       71.37       71.04       70.70       70.36       70.00    
  18  -1000.0       81.67       81.63       81.55       81.44       81.28       81.09       80.86       80.59       80.29    
        79.95       79.60       79.24       78.90       78.59       78.33       78.13       77.97       77.81       77.64    
        77.50       77.34       77.17       76.97       76.77       76.56       76.34       76.12       75.89       75.66    
        75.42       75.18       74.94       74.70       74.46       74.21       73.97       73.72       73.46       73.20    
        72.94       72.66       72.38       72.08       71.77       71.44       71.10       70.75       70.38       70.00    
  19  -1000.0       81.92       81.89       81.81       81.71       81.56       81.38       81.17       80.92       80.65    
        80.35       80.03       79.72       79.40       79.11       78.84       78.62       78.43       78.25       78.04    
        77.85       77.65       77.43       77.22       76.99       76.76       76.52       76.28       76.04       75.80    
        75.56       75.31       75.07       74.83       74.58       74.33       74.09       73.84       73.58       73.32    
        73.06       72.78       72.49       72.19       71.87       71.54       71.18       70.80       70.41       70.00    
  20  -1000.0       82.19       82.16       82.09       81.98       81.85       81.68       81.48       81.26       81.01    
        80.73       80.44       80.15       79.86       79.58       79.31       79.08       78.89       78.71       78.46    
        78.21       77.96       77.71       77.46       77.21       76.96       76.71       76.46       76.20       75.95    
        75.70       75.45       75.20       74.96       74.71       74.47       74.22       73.97       73.72       73.46    
        73.20       72.92       72.63       72.33       72.00       71.65       71.27       70.87       70.44       70.00    
  21  -1000.0       82.46       82.43       82.37       82.27       82.14       81.99       81.80       81.59       81.36    
        81.10       80.83       80.56       80.28       80.00       79.73       79.50       79.32       79.23       78.96    
        78.57       78.26       77.97       77.70       77.44       77.18       76.91       76.63       76.36       76.10    
        75.84       75.59       75.34       75.10       74.86       74.61       74.37       74.13       73.88       73.62    
        73.36       73.09       72.80       72.49       72.16       71.80       71.40       70.96       70.49       70.00    
  22  -1000.0       82.74       82.71       82.65       82.56       82.44       82.30       82.12       81.92       81.70    
        81.46       81.20       80.94       80.66       80.39       80.11       79.87       79.67       79.56       79.26    
        78.86       78.53       78.22       77.94       77.67       77.40       77.11       76.81       76.53       76.26    
        75.99       75.74       75.49       75.25       75.01       74.78       74.54       74.30       74.06       73.81    
        73.55       73.29       73.00       72.70       72.36       71.98       71.56       71.09       70.56       70.00    
  23  -1000.0       83.03       83.00       82.94       82.86       82.75       82.60       82.44       82.25       82.04    
        81.81       81.56       81.30       81.02       80.74       80.45       80.19       79.94       79.69       79.37    
        79.07       78.77       78.46       78.17       77.90       77.64       77.32       76.99       76.69       76.41    
        76.14       75.89       75.65       75.41       75.18       74.95       74.72       74.49       74.26       74.02    
        73.77       73.52       73.24       72.94       72.60       72.22       71.78       71.26       70.67       70.00    
  24  -1000.0       83.32       83.29       83.24       83.16       83.05       82.91       82.75       82.57       82.37    
        82.14       81.90       81.64       81.37       81.08       80.78       80.49       80.20       79.89       79.55    
        79.31       79.00       78.68       78.38       78.14       77.96       77.54       77.16       76.84       76.55    
        76.29       76.05       75.81       75.59       75.37       75.15       74.93       74.71       74.49       74.26    
        74.03       73.78       73.52       73.23       72.91       72.53       72.07       71.52       70.83       70.00    
  25  -1000.0       83.62       83.59       83.54       83.46       83.35       83.22       83.07       82.89       82.69    
        82.47       82.23       81.97       81.70       81.40       81.09       80.78       80.47       80.14       79.78    
        79.60       79.26       78.89       78.54       78.32       78.53       77.73       77.28       76.96       76.68    
        76.44       76.21       75.99       75.77       75.56       75.36       75.15       74.95       74.74       74.53    
        74.31       74.09       73.84       73.58       73.28       72.93       72.47       71.90       71.14       70.00    
  26  -1000.0       83.61       83.59       83.53       83.46       83.35       83.23       83.08       82.90       82.71    
        82.49       82.25       81.99       81.71       81.41       81.09       80.77       80.44       80.10       79.74    
        79.50       79.21       78.89       78.59       78.34       78.15       77.72       77.33       76.99       76.70    
        76.43       76.18       75.94       75.70       75.47       75.25       75.02       74.80       74.57       74.33    
        74.09       73.84       73.57       73.27       72.94       72.56       72.09       71.53       70.84       70.00    
  27  -1000.0       83.61       83.58       83.53       83.46       83.36       83.23       83.09       82.91       82.72    
        82.50       82.27       82.01       81.72       81.42       81.09       80.76       80.43       80.09       79.73    
        79.46       79.18       78.88       78.58       78.30       78.02       77.68       77.33       77.01       76.71    
        76.42       76.15       75.90       75.65       75.40       75.16       74.91       74.67       74.42       74.17    
        73.91       73.63       73.34       73.03       72.68       72.28       71.82       71.29       70.68       70.00    
  28  -1000.0       83.61       83.58       83.54       83.46       83.36       83.24       83.09       82.92       82.73    
        82.52       82.28       82.02       81.74       81.43       81.10       80.76       80.43       80.08       79.73    
        79.45       79.16       78.87       78.57       78.27       77.97       77.65       77.32       77.01       76.70    
        76.41       76.14       75.86       75.60       75.34       75.08       74.82       74.56       74.30       74.03    
        73.75       73.46       73.16       72.83       72.47       72.07       71.62       71.13       70.58       70.00    
  29  -1000.0       83.61       83.59       83.54       83.46       83.37       83.25       83.10       82.93       82.74    
        82.53       82.29       82.03       81.74       81.44       81.10       80.77       80.43       80.08       79.74    
        79.45       79.16       78.86       78.56       78.26       77.95       77.63       77.32       77.00       76.70    
        76.41       76.12       75.84       75.56       75.29       75.02       74.75       74.48       74.20       73.92    
        73.63       73.32       73.01       72.67       72.31       71.91       71.48       71.02       70.52       70.00    
  30  -1000.0       83.61       83.59       83.54       83.47       83.37       83.25       83.11       82.94       82.75    
        82.54       82.30       82.04       81.75       81.44       81.11       80.77       80.43       80.09       79.74    
        79.45       79.16       78.86       78.55       78.25       77.94       77.62       77.31       77.00       76.70    
        76.40       76.10       75.82       75.53       75.25       74.97       74.69       74.40       74.12       73.82    
        73.52       73.21       72.89       72.55       72.18       71.80       71.38       70.94       70.48       70.00    
  31  -1000.0       83.61       83.59       83.54       83.47       83.37       83.25       83.11       82.95       82.76    
        82.54       82.31       82.05       81.76       81.45       81.11       80.78       80.44       80.10       79.75    
        79.46       79.16       78.86       78.55       78.24       77.93       77.62       77.31       77.00       76.69    
        76.39       76.09       75.80       75.51       75.22       74.93       74.64       74.35       74.05       73.75    
        73.44       73.12       72.79       72.45       72.09       71.71       71.31       70.89       70.45       70.00    
  32  -1000.0       83.61       83.59       83.54       83.47       83.38       83.26       83.12       82.95       82.76    
        82.55       82.31       82.05       81.77       81.46       81.12       80.78       80.45       80.11       79.76    
        79.47       79.17       78.86       78.56       78.25       77.93       77.62       77.31       77.00       76.69    
        76.39       76.09       75.79       75.49       75.19       74.90       74.60       74.30       74.00       73.69    
        73.38       73.05       72.72       72.38       72.02       71.64       71.25       70.85       70.43       70.00    
  33  -1000.0       83.62       83.59       83.54       83.47       83.38       83.26       83.12       82.95       82.77    
        82.55       82.32       82.06       81.77       81.46       81.13       80.79       80.45       80.12       79.78    
        79.48       79.17       78.87       78.56       78.25       77.94       77.62       77.31       77.00       76.69    
        76.39       76.08       75.78       75.48       75.17       74.87       74.57       74.26       73.96       73.64    
        73.32       73.00       72.66       72.32       71.96       71.59       71.21       70.82       70.41       70.00    
  34  -1000.0       83.62       83.59       83.55       83.47       83.38       83.26       83.12       82.96       82.77    
        82.56       82.32       82.06       81.78       81.47       81.13       80.80       80.46       80.13       79.79    
        79.48       79.18       78.87       78.56       78.25       77.94       77.63       77.32       77.00       76.69    
        76.39       76.08       75.77       75.47       75.16       74.85       74.55       74.24       73.92       73.61    
        73.28       72.96       72.62       72.27       71.92       71.56       71.18       70.80       70.40       70.00    
  35  -1000.0       83.62       83.59       83.55       83.48       83.38       83.26       83.12       82.96       82.77    
        82.56       82.32       82.07       81.78       81.47       81.14       80.81       80.47       80.13       79.80    
        79.49       79.19       78.88       78.57       78.26       77.95       77.63       77.32       77.01       76.70    
        76.39       76.08       75.77       75.46       75.15       74.84       74.53       74.21       73.90       73.58    
        73.25       72.92       72.58       72.24       71.89       71.53       71.16       70.78       70.39       70.00    
  36  -1000.0       83.62       83.59       83.55       83.48       83.38       83.26       83.12       82.96       82.77    
        82.56       82.33       82.07       81.79       81.48       81.15       80.81       80.48       80.14       79.81    
        79.50       79.20       78.89       78.58       78.27       77.95       77.64       77.33       77.01       76.70    
        76.39       76.08       75.77       75.45       75.14       74.83       74.51       74.20       73.88       73.55    
        73.23       72.89       72.56       72.21       71.86       71.50       71.14       70.77       70.39       70.00    
  37  -1000.0       83.62       83.59       83.55       83.48       83.38       83.26       83.12       82.96       82.77    
        82.56       82.33       82.07       81.79       81.48       81.15       80.82       80.48       80.15       79.82    
        79.51       79.20       78.90       78.58       78.27       77.96       77.65       77.33       77.02       76.71    
        76.39       76.08       75.77       75.45       75.14       74.82       74.50       74.18       73.86       73.54    
        73.21       72.87       72.54       72.19       71.84       71.49       71.12       70.76       70.38       70.00    
  38  -1000.0       83.62       83.59       83.55       83.47       83.38       83.26       83.12       82.96       82.77    
        82.56       82.33       82.07       81.79       81.48       81.15       80.82       80.49       80.16       79.83    
        79.52       79.21       78.90       78.59       78.28       77.97       77.65       77.34       77.02       76.71    
        76.40       76.08       75.76       75.45       75.13       74.81       74.49       74.17       73.85       73.52    
        73.19       72.86       72.52       72.18       71.83       71.47       71.11       70.75       70.38       70.00    
  39  -1000.0       83.62       83.59       83.54       83.47       83.38       83.26       83.12       82.96       82.77    
        82.56       82.33       82.07       81.79       81.49       81.16       80.83       80.50       80.16       79.83    
        79.53       79.22       78.91       78.60       78.29       77.97       77.66       77.34       77.03       76.71    
        76.40       76.08       75.76       75.45       75.13       74.81       74.49       74.16       73.84       73.51    
        73.18       72.84       72.51       72.16       71.82       71.46       71.11       70.74       70.37       70.00    
  40  -1000.0       83.62       83.59       83.54       83.47       83.37       83.26       83.11       82.95       82.77    
        82.56       82.33       82.07       81.79       81.49       81.16       80.83       80.50       80.17       79.84    
        79.53       79.22       78.92       78.60       78.29       77.98       77.66       77.35       77.03       76.72    
        76.40       76.08       75.77       75.45       75.13       74.81       74.48       74.16       73.83       73.50    
        73.17       72.83       72.50       72.15       71.81       71.45       71.10       70.74       70.37       70.00    
  41  -1000.0       83.62       83.59       83.54       83.47       83.37       83.25       83.11       82.95       82.76    
        82.55       82.32       82.07       81.79       81.49       81.16       80.83       80.50       80.17       79.84    
        79.54       79.23       78.92       78.61       78.30       77.98       77.67       77.35       77.04       76.72    
        76.40       76.09       75.77       75.45       75.13       74.80       74.48       74.15       73.83       73.50    
        73.16       72.83       72.49       72.15       71.80       71.45       71.09       70.73       70.37       70.00    
  42  -1000.0       83.64       83.59       83.54       83.46       83.36       83.24       83.10       82.94       82.75    
        82.55       82.32       82.06       81.79       81.49       81.16       80.83       80.51       80.18       79.85    
        79.54       79.24       78.93       78.61       78.30       77.99       77.67       77.36       77.04       76.72    
        76.41       76.09       75.77       75.45       75.12       74.80       74.48       74.15       73.82       73.49    
        73.16       72.82       72.48       72.14       71.79       71.44       71.09       70.73       70.37       70.00    
  43  -1000.0       83.65       83.61       83.53       83.45       83.35       83.23       83.09       82.93       82.74    
        82.54       82.31       82.06       81.78       81.48       81.16       80.83       80.51       80.18       79.85    
        79.55       79.24       78.93       78.62       78.31       77.99       77.68       77.36       77.04       76.73    
        76.41       76.09       75.77       75.45       75.12       74.80       74.47       74.15       73.82       73.49    
        73.15       72.82       72.48       72.14       71.79       71.44       71.09       70.73       70.37       70.00    
  44  -1000.0       83.67       83.62       83.55       83.43       83.33       83.21       83.07       82.91       82.73    
        82.53       82.30       82.05       81.78       81.48       81.16       80.83       80.51       80.18       79.86    
        79.55       79.24       78.93       78.62       78.31       78.00       77.68       77.36       77.05       76.73    
        76.41       76.09       75.77       75.45       75.12       74.80       74.47       74.15       73.82       73.48    
        73.15       72.81       72.47       72.13       71.79       71.44       71.09       70.73       70.37       70.00    
  45  -1000.0       83.67       83.63       83.55       83.44       83.31       83.19       83.05       82.89       82.72    
        82.52       82.29       82.05       81.78       81.48       81.16       80.83       80.51       80.19       79.86    
        79.55       79.25       78.94       78.62       78.31       78.00       77.68       77.37       77.05       76.73    
        76.41       76.09       75.77       75.45       75.12       74.80       74.47       74.14       73.81       73.48    
        73.15       72.81       72.47       72.13       71.79       71.44       71.08       70.73       70.37       70.00    
  46  -1000.0     -1000.0       83.61       83.54       83.44       83.32       83.16       83.03       82.87       82.70    
        82.50       82.28       82.04       81.77       81.48       81.16       80.83       80.51       80.19       79.86    
        79.56       79.25       78.94       78.63       78.31       78.00       77.69       77.37       77.05       76.73    
        76.41       76.09       75.77       75.45       75.12       74.80       74.47       74.14       73.81       73.48    
        73.15       72.81       72.47       72.13       71.78       71.43       71.08       70.73       70.37       70.00    
  47  -1000.0     -1000.0     -1000.0       83.51       83.42       83.31       83.17       83.00       82.85       82.68    
        82.49       82.27       82.03       81.77       81.47       81.15       80.83       80.51       80.19       79.86    
        79.56       79.25       78.94       78.63       78.32       78.00       77.69       77.37       77.05       76.73    
        76.41       76.09       75.77       75.45       75.12       74.80       74.47       74.14       73.81       73.48    
        73.15       72.81       72.47       72.13       71.78       71.43       71.08       70.73       70.37       70.00    
  48  -1000.0     -1000.0     -1000.0     -1000.0       83.38       83.29       83.17       83.01       82.82       82.65    
        82.47       82.26       82.03       81.76       81.47       81.15       80.83       80.51       80.19       79.86    
        79.56       79.25       78.94       78.63       78.32       78.00       77.69       77.37       77.05       76.73    
        76.42       76.09       75.77       75.45       75.12       74.80       74.47       74.14       73.81       73.48    
        73.15       72.81       72.47       72.13       71.78       71.43       71.08       70.73       70.37       70.00    
  49  -1000.0     -1000.0     -1000.0     -1000.0     -1000.0       83.25       83.16       83.01       82.83       82.62    
        82.46       82.26       82.02       81.76       81.47       81.15       80.83       80.51       80.19       79.86    
        79.56       79.25       78.94       78.63       78.32       78.00       77.69       77.37       77.05       76.74    
        76.42       76.09       75.77       75.45       75.12       74.80       74.47       74.14       73.81       73.48    
        73.14       72.81       72.47       72.13       71.78       71.43       71.08       70.73       70.37       70.00    
  50  -1000.0     -1000.0     -1000.0     -1000.0     -1000.0     -1000.0     -1000.0     -1000.0     -1000.0     -1000.0    
      -1000.0     -1000.0     -1000.0     -1000.0     -1000.0     -1000.0     -1000.0     -1000.0     -1000.0     -1000.0    
      -1000.0     -1000.0     -1000.0     -1000.0     -1000.0     -1000.0     -1000.0     -1000.0     -1000.0     -1000.0    
      -1000.0     -1000.0     -1000.0     -1000.0     -1000.0     -1000.0     -1000.0     -1000.0     -1000.0     -1000.0    
      -1000.0     -1000.0     -1000.0     -1000.0     -1000.0     -1000.0     -1000.0     -1000.0     -1000.0       70.00    
1
              HEAD IN LAYER   2 AT END OF TIME STEP   1 IN STRESS PERIOD    1
  ---------------------------------------------------------------------------

            1           2           3           4           5           6           7           8           9          10
           11          12          13          14          15          16          17          18          19          20
           21          22          23          24          25          26          27          28          29          30
           31          32          33          34          35          36          37          38          39          40
           41          42          43          44          45          46          47          48          49          50
 ........................................................................................................................
   1  -1000.0     -1000.0     -1000.0     -1000.0     -1000.0     -1000.0     -1000.0     -1000.0     -1000.0     -1000.0    
      -1000.0     -1000.0     -1000.0     -1000.0     -1000.0     -1000.0     -1000.0     -1000.0     -1000.0     -1000.0    
      -1000.0     -1000.0     -1000.0     -1000.0     -1000.0     -1000.0     -1000.0     -1000.0     -1000.0     -1000.0    
      -1000.0     -1000.0     -1000.0     -1000.0     -1000.0     -1000.0     -1000.0     -1000.0     -1000.0     -1000.0    
      -1000.0     -1000.0     -1000.0     -1000.0     -1000.0     -1000.0     -1000.0     -1000.0     -1000.0       70.00    
   2  -1000.0     -1000.0     -1000.0     -1000.0     -1000.0     -1000.0     -1000.0       79.03       78.81       78.56    
        78.38       78.17       77.94       77.69       77.43       77.17       76.93       76.70       76.49       76.29    
        76.10       75.92       75.74       75.56       75.38       75.21       75.03       74.84       74.65       74.46    
        74.26       74.06       73.86       73.65       73.44       73.22       73.00       72.78       72.56       72.33    
        72.11       71.88       71.65       71.41       71.18       70.95       70.71       70.47       70.24       70.00    
   3  -1000.0     -1000.0     -1000.0     -1000.0     -1000.0     -1000.0       79.23       79.03       78.78       78.59    
        78.39       78.16       77.92       77.67       77.42       77.15       76.91       76.68       76.47       76.28    
        76.09       75.91       75.74       75.56       75.39       75.21       75.03       74.84       74.66       74.46    
        74.27       74.07       73.86       73.65       73.44       73.22       73.00       72.78       72.56       72.33    
        72.11       71.88       71.65       71.41       71.18       70.95       70.71       70.47       70.24       70.00    
   4  -1000.0     -1000.0     -1000.0     -1000.0     -1000.0       79.44       79.24       79.01       78.82       78.61    
        78.39       78.15       77.90       77.64       77.38       77.11       76.87       76.65       76.45       76.26    
        76.08       75.90       75.73       75.56       75.39       75.21       75.04       74.85       74.66       74.47    
        74.27       74.07       73.87       73.66       73.44       73.23       73.01       72.79       72.56       72.34    
        72.11       71.88       71.65       71.42       71.18       70.95       70.71       70.48       70.24       70.00    
   5  -1000.0     -1000.0     -1000.0     -1000.0       79.65       79.47       79.25       79.06       78.85       78.62    
        78.37       78.11       77.85       77.58       77.31       77.05       76.81       76.60       76.41       76.23    
        76.06       75.89       75.73       75.56       75.39       75.22       75.05       74.86       74.68       74.48    
        74.29       74.08       73.88       73.67       73.45       73.23       73.01       72.79       72.57       72.34    
        72.11       71.88       71.65       71.42       71.18       70.95       70.71       70.48       70.24       70.00    
   6  -1000.0     -1000.0     -1000.0       79.86       79.69       79.49       79.30       79.10       78.86       78.61    
        78.35       78.06       77.78       77.49       77.22       76.96       76.73       76.53       76.35       76.19    
        76.03       75.88       75.72       75.57       75.40       75.24       75.06       74.88       74.69       74.50    
        74.30       74.10       73.89       73.68       73.46       73.24       73.02       72.80       72.57       72.34    
        72.12       71.88       71.65       71.42       71.19       70.95       70.71       70.48       70.24       70.00    
   7  -1000.0     -1000.0       80.03       79.90       79.73       79.55       79.36       79.13       78.88       78.60    
        78.30       77.99       77.68       77.37       77.09       76.83       76.61       76.44       76.28       76.14    
        76.00       75.87       75.72       75.58       75.42       75.26       75.08       74.90       74.72       74.52    
        74.32       74.12       73.91       73.69       73.48       73.26       73.03       72.81       72.58       72.35    
        72.12       71.89       71.66       71.42       71.19       70.95       70.72       70.48       70.24       70.00    
   8  -1000.0       80.15       80.08       79.95       79.80       79.62       79.41       79.17       78.89       78.58    
        78.25       77.90       77.54       77.20       76.90       76.65       76.46       76.32       76.20       76.09    
        75.98       75.86       75.73       75.59       75.44       75.28       75.11       74.93       74.75       74.55    
        74.35       74.14       73.93       73.71       73.49       73.27       73.04       72.82       72.59       72.36    
        72.13       71.89       71.66       71.43       71.19       70.95       70.72       70.48       70.24       70.00    
   9  -1000.0       80.21       80.14       80.03       79.88       79.69       79.47       79.21       78.91       78.57    
        78.19       77.78       77.36       76.97       76.64       76.41       76.27       76.18       76.11       76.04    
        75.96       75.86       75.75       75.62       75.48       75.32       75.15       74.97       74.78       74.59    
        74.38       74.17       73.96       73.74       73.51       73.29       73.06       72.83       72.60       72.37    
        72.13       71.90       71.66       71.43       71.19       70.96       70.72       70.48       70.24       70.00    
  10  -1000.0       80.30       80.23       80.12       79.97       79.78       79.55       79.27       78.94       78.56    
        78.12       77.64       77.13       76.64       76.25       76.07       76.02       76.03       76.03       76.00    
        75.96       75.88       75.78       75.66       75.52       75.37       75.20       75.02       74.83       74.63    
        74.42       74.21       73.99       73.76       73.53       73.31       73.07       72.84       72.61       72.37    
        72.14       71.90       71.67       71.43       71.20       70.96       70.72       70.48       70.24       70.00    
  11  -1000.0       80.38       80.33       80.22       80.08       79.88       79.64       79.34       78.99       78.57    
        78.08       77.51       76.86       76.17       75.62       75.59       75.73       75.87       75.96       75.99    
        75.98       75.92       75.84       75.72       75.59       75.43       75.26       75.08       74.88       74.68    
        74.46       74.24       74.02       73.79       73.56       73.33       73.09       72.85       72.62       72.38    
        72.15       71.91       71.67       71.44       71.20       70.96       70.72       70.48       70.24       70.00    
  12  -1000.0       80.50       80.45       80.35       80.20       80.01       79.76       79.45       79.08       78.64    
        78.09       77.42       76.58       75.53       74.43       74.94       75.44       75.77       75.95       76.03    
        76.04       76.00       75.92       75.80       75.67       75.51       75.33       75.14       74.94       74.73    
        74.51       74.29       74.06       73.82       73.59       73.35       73.11       72.87       72.63       72.39    
        72.15       71.92       71.68       71.44       71.21       70.97       70.73       70.49       70.24       70.00    
  13  -1000.0       80.64       80.59       80.50       80.35       80.16       79.91       79.60       79.23       78.77    
        78.20       77.48       76.48       74.88       71.51       74.28       75.33       75.81       76.04       76.14    
        76.16       76.11       76.03       75.91       75.77       75.60       75.42       75.22       75.01       74.80    
        74.57       74.34       74.10       73.86       73.61       73.37       73.12       72.88       72.64       72.40    
        72.16       71.92       71.68       71.45       71.21       70.97       70.73       70.49       70.24       70.00    
  14  -1000.0       80.81       80.76       80.67       80.53       80.33       80.09       79.79       79.42       78.98    
        78.44       77.77       76.93       75.87       74.78       75.28       75.78       76.09       76.27       76.33    
        76.33       76.27       76.17       76.04       75.89       75.71       75.52       75.31       75.10       74.87    
        74.63       74.39       74.15       73.90       73.64       73.39       73.14       72.89       72.64       72.40    
        72.16       71.93       71.69       71.45       71.22       70.98       70.74       70.49       70.25       70.00    
  15  -1000.0       81.00       80.95       80.86       80.72       80.54       80.30       80.02       79.67       79.25    
        78.77       78.19       77.54       76.86       76.31       76.27       76.40       76.52       76.59       76.60    
        76.56       76.47       76.35       76.20       76.03       75.84       75.63       75.41       75.19       74.95    
        74.70       74.45       74.20       73.94       73.68       73.42       73.16       72.90       72.65       72.41    
        72.17       71.93       71.70       71.46       71.22       70.98       70.74       70.50       70.25       70.00    
  16  -1000.0       81.20       81.16       81.07       80.94       80.77       80.55       80.28       79.95       79.58    
        79.15       78.67       78.16       77.66       77.27       77.08       77.02       77.00       76.98       76.92    
        76.83       76.70       76.55       76.38       76.19       75.98       75.76       75.53       75.29       75.04    
        74.78       74.52       74.25       73.98       73.71       73.44       73.17       72.91       72.66       72.41    
        72.17       71.94       71.70       71.47       71.23       71.00       70.75       70.50       70.25       70.00    
  17  -1000.0       81.43       81.39       81.31       81.18       81.02       80.81       80.56       80.26       79.93    
        79.55       79.14       78.73       78.33       77.99       77.75       77.60       77.49       77.39       77.27    
        77.13       76.96       76.78       76.58       76.36       76.13       75.89       75.65       75.39       75.13    
        74.86       74.59       74.31       74.03       73.75       73.46       73.19       72.92       72.66       72.41    
        72.17       71.94       71.71       71.48       71.25       71.01       70.76       70.51       70.26       70.00    
  18  -1000.0       81.67       81.63       81.55       81.44       81.28       81.09       80.86       80.59       80.29    
        79.95       79.60       79.24       78.90       78.59       78.33       78.13       77.97       77.81       77.64    
        77.45       77.24       77.02       76.79       76.55       76.30       76.04       75.78       75.51       75.23    
        74.95       74.67       74.38       74.08       73.79       73.49       73.20       72.92       72.65       72.41    
        72.17       71.95       71.73       71.50       71.27       71.03       70.78       70.53       70.26       70.00    
  19  -1000.0       81.92       81.89       81.81       81.71       81.56       81.38       81.17       80.92       80.65    
        80.35       80.03       79.72       79.40       79.11       78.84       78.62       78.43       78.25       78.04    
        77.79       77.53       77.27       77.00       76.74       76.46       76.19       75.91       75.63       75.34    
        75.05       74.75       74.45       74.14       73.83       73.52       73.21       72.92       72.65       72.40    
        72.18       71.96       71.75       71.53       71.30       71.06       70.81       70.54       70.27       70.00    
  20  -1000.0       82.19       82.15       82.09       81.98       81.85       81.68       81.48       81.26       81.01    
        80.73       80.44       80.15       79.86       79.58       79.31       79.08       78.89       78.71       78.46    
        78.15       77.83       77.52       77.22       76.93       76.64       76.34       76.05       75.75       75.45    
        75.14       74.84       74.52       74.21       73.88       73.56       73.24       72.93       72.64       72.41    
        72.19       71.99       71.78       71.57       71.34       71.09       70.84       70.57       70.29       70.00    
  21  -1000.0       82.46       82.43       82.37       82.27       82.14       81.99       81.80       81.59       81.36    
        81.10       80.83       80.56       80.28       80.00       79.73       79.50       79.32       79.23       78.96    
        78.50       78.11       77.76       77.43       77.12       76.80       76.49       76.18       75.87       75.56    
        75.25       74.93       74.61       74.28       73.95       73.61       73.27       72.94       72.64       72.42    
        72.22       72.03       71.83       71.62       71.39       71.14       70.88       70.60       70.30       70.00    
  22  -1000.0       82.74       82.71       82.65       82.56       82.44       82.30       82.12       81.92       81.70    
        81.46       81.20       80.94       80.66       80.39       80.11       79.87       79.67       79.56       79.26    
        78.77       78.35       77.98       77.63       77.29       76.97       76.64       76.32       76.00       75.68    
        75.35       75.03       74.70       74.37       74.03       73.69       73.34       72.99       72.67       72.47    
        72.28       72.10       71.90       71.69       71.45       71.20       70.93       70.63       70.32       70.00    
  23  -1000.0       83.03       83.00       82.94       82.86       82.74       82.60       82.44       82.25       82.04    
        81.81       81.56       81.30       81.02       80.74       80.45       80.19       79.94       79.69       79.37    
        78.95       78.55       78.17       77.80       77.46       77.12       76.78       76.45       76.12       75.79    
        75.46       75.13       74.80       74.47       74.13       73.79       73.45       73.11       72.81       72.58    
        72.39       72.19       71.99       71.77       71.53       71.27       70.98       70.67       70.34       70.00    
  24  -1000.0       83.32       83.29       83.24       83.16       83.05       82.91       82.75       82.57       82.37    
        82.14       81.90       81.64       81.37       81.08       80.78       80.49       80.20       79.89       79.55    
        79.12       78.71       78.32       77.96       77.60       77.26       76.91       76.57       76.23       75.89    
        75.56       75.23       74.90       74.57       74.24       73.91       73.58       73.26       72.97       72.73    
        72.51       72.30       72.08       71.85       71.60       71.33       71.04       70.71       70.36       70.00    
  25  -1000.0       83.62       83.59       83.54       83.46       83.35       83.22       83.07       82.89       82.69    
        82.47       82.23       81.97       81.70       81.40       81.09       80.78       80.47       80.14       79.78    
        79.27       78.84       78.45       78.08       77.72       77.38       77.02       76.67       76.33       75.99    
        75.65       75.32       75.00       74.67       74.34       74.02       73.70       73.40       73.11       72.86    
        72.62       72.40       72.17       71.92       71.66       71.38       71.08       70.74       70.38       70.00    
  26  -1000.0       83.61       83.59       83.53       83.46       83.35       83.23       83.08       82.90       82.71    
        82.49       82.25       81.99       81.71       81.41       81.09       80.77       80.44       80.10       79.74    
        79.32       78.92       78.54       78.17       77.81       77.46       77.11       76.75       76.41       76.07    
        75.73       75.40       75.07       74.75       74.43       74.11       73.80       73.50       73.22       72.95    
        72.70       72.46       72.21       71.95       71.68       71.39       71.08       70.74       70.38       70.00    
  27  -1000.0       83.61       83.58       83.53       83.46       83.36       83.23       83.09       82.91       82.72    
        82.50       82.27       82.01       81.72       81.42       81.09       80.76       80.43       80.09       79.73    
        79.35       78.97       78.59       78.23       77.87       77.52       77.17       76.82       76.47       76.13    
        75.80       75.47       75.14       74.82       74.50       74.18       73.88       73.58       73.29       73.02    
        72.76       72.50       72.23       71.96       71.68       71.38       71.06       70.73       70.37       70.00    
  28  -1000.0       83.61       83.58       83.54       83.46       83.36       83.24       83.09       82.92       82.73    
        82.52       82.28       82.02       81.74       81.43       81.10       80.76       80.43       80.08       79.73    
        79.36       79.00       78.63       78.27       77.92       77.57       77.22       76.87       76.53       76.19    
        75.86       75.52       75.20       74.88       74.56       74.24       73.94       73.64       73.35       73.07    
        72.79       72.52       72.25       71.96       71.67       71.37       71.05       70.71       70.36       70.00    
  29  -1000.0       83.61       83.59       83.54       83.46       83.37       83.25       83.10       82.93       82.74    
        82.53       82.29       82.03       81.74       81.44       81.10       80.77       80.43       80.08       79.74    
        79.38       79.02       78.66       78.31       77.96       77.61       77.26       76.92       76.58       76.24    
        75.91       75.58       75.25       74.93       74.61       74.30       73.99       73.69       73.39       73.11    
        72.82       72.54       72.25       71.96       71.66       71.35       71.03       70.70       70.35       70.00    
  30  -1000.0       83.61       83.59       83.54       83.47       83.37       83.25       83.11       82.94       82.75    
        82.54       82.30       82.04       81.75       81.44       81.11       80.77       80.43       80.09       79.74    
        79.39       79.04       78.69       78.34       77.99       77.65       77.30       76.96       76.62       76.28    
        75.95       75.62       75.29       74.97       74.65       74.34       74.03       73.73       73.43       73.13    
        72.84       72.55       72.26       71.96       71.65       71.34       71.02       70.68       70.34       70.00    
  31  -1000.0       83.61       83.59       83.54       83.47       83.37       83.25       83.11       82.95       82.76    
        82.54       82.31       82.05       81.76       81.45       81.11       80.78       80.44       80.10       79.75    
        79.41       79.06       78.71       78.37       78.02       77.68       77.33       76.99       76.66       76.32    
        75.99       75.66       75.33       75.01       74.69       74.38       74.07       73.76       73.46       73.16    
        72.86       72.56       72.26       71.96       71.65       71.33       71.01       70.68       70.34       70.00    
  32  -1000.0       83.61       83.59       83.54       83.47       83.38       83.26       83.12       82.95       82.76    
        82.55       82.31       82.05       81.77       81.46       81.12       80.78       80.45       80.11       79.76    
        79.42       79.08       78.73       78.39       78.05       77.70       77.36       77.03       76.69       76.36    
        76.02       75.70       75.37       75.05       74.73       74.41       74.10       73.79       73.48       73.18    
        72.88       72.57       72.27       71.96       71.64       71.32       71.00       70.67       70.34       70.00    
  33  -1000.0       83.62       83.59       83.54       83.47       83.38       83.26       83.12       82.95       82.77    
        82.55       82.32       82.06       81.77       81.46       81.13       80.79       80.45       80.12       79.78    
        79.43       79.09       78.75       78.41       78.07       77.73       77.39       77.05       76.72       76.39    
        76.06       75.73       75.40       75.08       74.76       74.44       74.13       73.82       73.51       73.20    
        72.89       72.58       72.27       71.96       71.64       71.32       71.00       70.67       70.33       70.00    
  34  -1000.0       83.62       83.59       83.55       83.47       83.38       83.26       83.12       82.96       82.77    
        82.56       82.32       82.06       81.78       81.47       81.13       80.80       80.46       80.13       79.79    
        79.45       79.11       78.77       78.43       78.09       77.75       77.42       77.08       76.75       76.42    
        76.09       75.76       75.43       75.11       74.79       74.47       74.15       73.84       73.53       73.21    
        72.90       72.59       72.28       71.96       71.64       71.32       70.99       70.66       70.33       70.00    
  35  -1000.0       83.62       83.59       83.55       83.48       83.38       83.26       83.12       82.96       82.77    
        82.56       82.32       82.07       81.78       81.47       81.14       80.81       80.47       80.13       79.80    
        79.46       79.12       78.78       78.45       78.11       77.77       77.44       77.10       76.77       76.44    
        76.11       75.78       75.46       75.14       74.81       74.49       74.18       73.86       73.54       73.23    
        72.91       72.60       72.28       71.96       71.64       71.32       70.99       70.66       70.33       70.00    
  36  -1000.0       83.62       83.59       83.55       83.48       83.38       83.26       83.12       82.96       82.77    
        82.56       82.33       82.07       81.79       81.48       81.15       80.81       80.48       80.14       79.81    
        79.47       79.13       78.80       78.46       78.13       77.79       77.46       77.13       76.80       76.46    
        76.14       75.81       75.48       75.16       74.84       74.52       74.20       73.88       73.56       73.24    
        72.93       72.61       72.29       71.97       71.65       71.32       70.99       70.66       70.33       70.00    
  37  -1000.0       83.62       83.59       83.55       83.48       83.38       83.26       83.12       82.96       82.77    
        82.56       82.33       82.07       81.79       81.48       81.15       80.82       80.48       80.15       79.82    
        79.48       79.15       78.81       78.48       78.14       77.81       77.48       77.15       76.82       76.49    
        76.16       75.83       75.51       75.18       74.86       74.54       74.22       73.90       73.58       73.26    
        72.94       72.62       72.30       71.97       71.65       71.32       70.99       70.66       70.33       70.00    
  38  -1000.0       83.62       83.59       83.55       83.47       83.38       83.26       83.12       82.96       82.77    
        82.56       82.33       82.07       81.79       81.48       81.15       80.82       80.49       80.16       79.83    
        79.49       79.16       78.82       78.49       78.16       77.83       77.50       77.16       76.83       76.51    
        76.18       75.85       75.52       75.20       74.88       74.55       74.23       73.91       73.59       73.27    
        72.95       72.62       72.30       71.98       71.65       71.32       71.00       70.67       70.33       70.00    
  39  -1000.0       83.62       83.59       83.54       83.47       83.38       83.26       83.12       82.96       82.77    
        82.56       82.33       82.07       81.79       81.49       81.16       80.83       80.50       80.16       79.83    
        79.50       79.17       78.84       78.50       78.17       77.84       77.51       77.18       76.85       76.52    
        76.19       75.87       75.54       75.22       74.89       74.57       74.25       73.92       73.60       73.28    
        72.96       72.63       72.31       71.98       71.66       71.33       71.00       70.67       70.33       70.00    
  40  -1000.0       83.62       83.59       83.54       83.47       83.37       83.26       83.11       82.95       82.77    
        82.56       82.33       82.07       81.79       81.49       81.16       80.83       80.50       80.17       79.84    
        79.51       79.18       78.84       78.51       78.18       77.85       77.52       77.19       76.87       76.54    
        76.21       75.88       75.56       75.23       74.91       74.58       74.26       73.94       73.61       73.29    
        72.96       72.64       72.31       71.99       71.66       71.33       71.00       70.67       70.33       70.00    
  41  -1000.0       83.62       83.59       83.54       83.47       83.37       83.25       83.11       82.95       82.76    
        82.55       82.32       82.07       81.79       81.49       81.16       80.83       80.50       80.17       79.84    
        79.51       79.18       78.85       78.52       78.19       77.86       77.54       77.21       76.88       76.55    
        76.22       75.90       75.57       75.24       74.92       74.59       74.27       73.95       73.62       73.30    
        72.97       72.65       72.32       71.99       71.66       71.33       71.00       70.67       70.33       70.00    
  42  -1000.0       83.64       83.59       83.54       83.46       83.36       83.24       83.10       82.94       82.75    
        82.55       82.32       82.06       81.79       81.49       81.16       80.83       80.51       80.18       79.85    
        79.52       79.19       78.86       78.53       78.20       77.87       77.55       77.22       76.89       76.56    
        76.24       75.91       75.58       75.26       74.93       74.61       74.28       73.96       73.63       73.30    
        72.98       72.65       72.32       72.00       71.67       71.34       71.00       70.67       70.34       70.00    
  43  -1000.0       83.65       83.61       83.53       83.45       83.35       83.23       83.09       82.93       82.74    
        82.54       82.31       82.06       81.78       81.48       81.16       80.83       80.51       80.18       79.85    
        79.52       79.20       78.87       78.54       78.21       77.88       77.55       77.23       76.90       76.57    
        76.25       75.92       75.59       75.27       74.94       74.61       74.29       73.96       73.64       73.31    
        72.98       72.66       72.33       72.00       71.67       71.34       71.00       70.67       70.34       70.00    
  44  -1000.0     -1000.0       83.62       83.55       83.43       83.33       83.21       83.07       82.91       82.73    
        82.53       82.30       82.05       81.78       81.48       81.16       80.83       80.51       80.18       79.86    
        79.53       79.20       78.87       78.54       78.22       77.89       77.56       77.23       76.91       76.58    
        76.25       75.93       75.60       75.27       74.95       74.62       74.30       73.97       73.64       73.32    
        72.99       72.66       72.33       72.00       71.67       71.34       71.01       70.67       70.34       70.00    
  45  -1000.0     -1000.0     -1000.0       83.55       83.44       83.31       83.19       83.05       82.89       82.72    
        82.52       82.29       82.05       81.78       81.48       81.16       80.83       80.51       80.19       79.86    
        79.53       79.20       78.88       78.55       78.22       77.90       77.57       77.24       76.91       76.59    
        76.26       75.93       75.61       75.28       74.95       74.63       74.30       73.98       73.65       73.32    
        72.99       72.67       72.34       72.01       71.67       71.34       71.01       70.67       70.34       70.00    
  46  -1000.0     -1000.0     -1000.0     -1000.0       83.44       83.32       83.16       83.03       82.87       82.70    
        82.50       82.28       82.04       81.77       81.48       81.16       80.83       80.51       80.19       79.86    
        79.53       79.21       78.88       78.55       78.23       77.90       77.57       77.25       76.92       76.59    
        76.27       75.94       75.61       75.29       74.96       74.63       74.31       73.98       73.65       73.33    
        73.00       72.67       72.34       72.01       71.68       71.34       71.01       70.67       70.34       70.00    
  47  -1000.0     -1000.0     -1000.0     -1000.0     -1000.0       83.31       83.17       83.00       82.85       82.68    
        82.49       82.27       82.03       81.77       81.47       81.15       80.83       80.51       80.19       79.86    
        79.54       79.21       78.88       78.56       78.23       77.90       77.58       77.25       76.92       76.60    
        76.27       75.94       75.62       75.29       74.96       74.64       74.31       73.98       73.66       73.33    
        73.00       72.67       72.34       72.01       71.68       71.34       71.01       70.67       70.34       70.00    
  48  -1000.0     -1000.0     -1000.0     -1000.0     -1000.0     -1000.0       83.17       83.01       82.82       82.65    
        82.47       82.26       82.03       81.76       81.47       81.15       80.83       80.51       80.19       79.86    
        79.54       79.21       78.88       78.56       78.23       77.91       77.58       77.25       76.93       76.60    
        76.27       75.95       75.62       75.29       74.97       74.64       74.31       73.99       73.66       73.33    
        73.00       72.67       72.34       72.01       71.68       71.34       71.01       70.67       70.34       70.00    
  49  -1000.0     -1000.0     -1000.0     -1000.0     -1000.0     -1000.0     -1000.0       83.01       82.83       82.62    
        82.46       82.26       82.02       81.76       81.47       81.15       80.83       80.51       80.19       79.86    
        79.54       79.21       78.89       78.56       78.23       77.91       77.58       77.25       76.93       76.60    
        76.27       75.95       75.62       75.29       74.97       74.64       74.31       73.99       73.66       73.33    
        73.00       72.67       72.34       72.01       71.68       71.34       71.01       70.67       70.34       70.00    
  50  -1000.0     -1000.0     -1000.0     -1000.0     -1000.0     -1000.0     -1000.0     -1000.0     -1000.0     -1000.0    
      -1000.0     -1000.0     -1000.0     -1000.0     -1000.0     -1000.0     -1000.0     -1000.0     -1000.0     -1000.0    
      -1000.0     -1000.0     -1000.0     -1000.0     -1000.0     -1000.0     -1000.0     -1000.0     -1000.0     -1000.0    
      -1000.0     -1000.0     -1000.0     -1000.0     -1000.0     -1000.0     -1000.0     -1000.0     -1000.0     -1000.0    
      -1000.0     -1000.0     -1000.0     -1000.0     -1000.0     -1000.0     -1000.0     -1000.0     -1000.0       70.00    
1
              HEAD IN LAYER   3 AT END OF TIME STEP   1 IN STRESS PERIOD    1
  ---------------------------------------------------------------------------

            1           2           3           4           5           6           7           8           9          10
           11          12          13          14          15          16          17          18          19          20
           21          22          23          24          25          26          27          28          29          30
           31          32          33          34          35          36          37          38          39          40
[...]
        78.88       78.41       77.97       77.55       77.15       76.76       76.37       75.99       75.61       75.22    
        74.83       74.42       73.98       73.52       73.02       72.45       71.80       71.03       70.25       70.48    
        70.71       70.82       70.84       70.80       70.72       70.60       70.47       70.32       70.16       70.00    
  24  -1000.0       83.32       83.29       83.24       83.16       83.05       82.91       82.75       82.57       82.37    
        82.14       81.90       81.64       81.37       81.08       80.78       80.49       80.20       79.89       79.55    
        79.05       78.57       78.12       77.69       77.28       76.88       76.49       76.10       75.71       75.32    
        74.92       74.51       74.09       73.64       73.16       72.65       72.11       71.56       71.12       71.01    
        71.01       71.00       70.96       70.88       70.77       70.64       70.50       70.34       70.17       70.00    
  25  -1000.0       83.61       83.59       83.53       83.46       83.35       83.22       83.07       82.89       82.69    
        82.47       82.23       81.97       81.70       81.40       81.09       80.78       80.47       80.14       79.78    
        79.19       78.69       78.24       77.81       77.39       76.99       76.60       76.20       75.81       75.42    
        75.03       74.62       74.21       73.78       73.33       72.88       72.42       71.98       71.63       71.42    
        71.30       71.20       71.09       70.98       70.84       70.69       70.53       70.36       70.18       70.00    
  26  -1000.0       83.61       83.59       83.53       83.46       83.35       83.23       83.08       82.90       82.71    
        82.49       82.25       81.99       81.71       81.41       81.09       80.77       80.44       80.10       79.74    
        79.25       78.78       78.33       77.90       77.49       77.09       76.69       76.30       75.91       75.52    
        75.13       74.73       74.33       73.92       73.50       73.09       72.68       72.30       71.98       71.74    
        71.55       71.39       71.23       71.08       70.92       70.75       70.57       70.38       70.19       70.00    
  27  -1000.0       83.61       83.58       83.53       83.46       83.36       83.23       83.09       82.91       82.72    
        82.50       82.27       82.01       81.72       81.42       81.09       80.76       80.43       80.09       79.73    
        79.28       78.84       78.40       77.98       77.58       77.18       76.78       76.39       76.01       75.62    
        75.23       74.84       74.45       74.06       73.67       73.28       72.91       72.56       72.25       71.98    
        71.76       71.56       71.37       71.18       70.99       70.80       70.61       70.41       70.20       70.00    
  28  -1000.0       83.61       83.58       83.54       83.46       83.36       83.24       83.09       82.92       82.73    
        82.52       82.28       82.02       81.74       81.43       81.10       80.76       80.43       80.08       79.73    
        79.30       78.88       78.46       78.05       77.65       77.25       76.86       76.48       76.09       75.71    
        75.33       74.95       74.57       74.19       73.82       73.45       73.10       72.76       72.46       72.18    
        71.93       71.70       71.49       71.28       71.07       70.86       70.65       70.43       70.22       70.00    
  29  -1000.0       83.61       83.59       83.54       83.46       83.37       83.25       83.10       82.93       82.74    
        82.53       82.29       82.03       81.74       81.44       81.10       80.77       80.43       80.08       79.73    
        79.32       78.92       78.51       78.11       77.71       77.32       76.94       76.56       76.18       75.80    
        75.43       75.05       74.68       74.31       73.95       73.60       73.26       72.93       72.63       72.34    
        72.08       71.83       71.59       71.36       71.14       70.91       70.68       70.46       70.23       70.00    
  30  -1000.0       83.61       83.59       83.54       83.47       83.37       83.25       83.11       82.94       82.75    
        82.54       82.30       82.04       81.75       81.44       81.11       80.77       80.43       80.09       79.74    
        79.34       78.95       78.55       78.16       77.77       77.39       77.00       76.63       76.25       75.88    
        75.51       75.15       74.78       74.43       74.07       73.73       73.39       73.07       72.77       72.48    
        72.20       71.94       71.69       71.44       71.20       70.96       70.72       70.48       70.24       70.00    
  31  -1000.0       83.61       83.59       83.54       83.47       83.37       83.25       83.11       82.95       82.76    
        82.54       82.31       82.05       81.76       81.45       81.11       80.78       80.44       80.10       79.75    
        79.36       78.97       78.59       78.20       77.82       77.44       77.07       76.69       76.32       75.96    
        75.59       75.23       74.88       74.52       74.18       73.84       73.51       73.19       72.88       72.59    
        72.31       72.03       71.77       71.51       71.26       71.00       70.75       70.50       70.25       70.00    
  32  -1000.0       83.61       83.59       83.54       83.47       83.38       83.26       83.12       82.95       82.76    
        82.55       82.31       82.05       81.77       81.46       81.12       80.78       80.45       80.11       79.76    
        79.38       79.00       78.62       78.24       77.86       77.49       77.12       76.75       76.39       76.03    
        75.67       75.31       74.96       74.61       74.27       73.94       73.61       73.29       72.98       72.69    
        72.40       72.11       71.84       71.57       71.31       71.04       70.78       70.52       70.26       70.00    
  33  -1000.0       83.62       83.59       83.54       83.47       83.38       83.26       83.12       82.95       82.77    
        82.55       82.32       82.06       81.77       81.46       81.13       80.79       80.45       80.12       79.78    
        79.40       79.02       78.65       78.27       77.90       77.54       77.17       76.81       76.45       76.09    
        75.73       75.38       75.03       74.69       74.35       74.02       73.70       73.38       73.07       72.77    
        72.47       72.18       71.90       71.62       71.35       71.08       70.81       70.54       70.27       70.00    
  34  -1000.0       83.62       83.59       83.55       83.47       83.38       83.26       83.12       82.96       82.77    
        82.56       82.32       82.06       81.78       81.47       81.13       80.80       80.46       80.13       79.79    
        79.42       79.04       78.67       78.31       77.94       77.58       77.21       76.85       76.50       76.14    
        75.79       75.44       75.10       74.76       74.43       74.10       73.77       73.45       73.14       72.84    
        72.54       72.24       71.95       71.67       71.39       71.11       70.83       70.55       70.28       70.00    
  35  -1000.0       83.62       83.59       83.55       83.48       83.38       83.26       83.12       82.96       82.77    
        82.56       82.32       82.07       81.78       81.47       81.14       80.81       80.47       80.13       79.80    
        79.43       79.06       78.70       78.33       77.97       77.61       77.25       76.90       76.54       76.19    
        75.85       75.50       75.16       74.82       74.49       74.16       73.84       73.52       73.20       72.90    
        72.59       72.29       72.00       71.71       71.42       71.13       70.85       70.57       70.28       70.00    
  36  -1000.0       83.62       83.59       83.55       83.48       83.38       83.26       83.12       82.96       82.77    
        82.56       82.33       82.07       81.79       81.48       81.15       80.81       80.48       80.14       79.81    
        79.44       79.08       78.72       78.36       78.00       77.64       77.29       76.94       76.59       76.24    
        75.89       75.55       75.21       74.88       74.54       74.22       73.89       73.57       73.26       72.95    
        72.64       72.34       72.04       71.74       71.45       71.16       70.87       70.58       70.29       70.00    
  37  -1000.0       83.62       83.59       83.55       83.48       83.38       83.26       83.12       82.96       82.77    
        82.56       82.33       82.07       81.79       81.48       81.15       80.82       80.48       80.15       79.82    
        79.46       79.10       78.74       78.38       78.03       77.67       77.32       76.97       76.62       76.28    
        75.94       75.59       75.26       74.92       74.59       74.26       73.94       73.62       73.30       72.99    
        72.68       72.38       72.07       71.77       71.48       71.18       70.88       70.59       70.29       70.00    
  38  -1000.0       83.62       83.59       83.55       83.47       83.38       83.26       83.12       82.96       82.77    
        82.56       82.33       82.07       81.79       81.48       81.15       80.82       80.49       80.16       79.83    
        79.47       79.11       78.76       78.40       78.05       77.70       77.35       77.00       76.66       76.31    
        75.97       75.63       75.30       74.96       74.63       74.31       73.98       73.66       73.34       73.03    
        72.72       72.41       72.10       71.80       71.50       71.20       70.90       70.60       70.30       70.00    
  39  -1000.0       83.62       83.59       83.54       83.47       83.38       83.26       83.12       82.96       82.77    
        82.56       82.33       82.07       81.79       81.49       81.16       80.83       80.50       80.16       79.83    
        79.48       79.12       78.77       78.42       78.07       77.72       77.38       77.03       76.69       76.34    
        76.01       75.67       75.33       75.00       74.67       74.34       74.02       73.70       73.38       73.06    
        72.75       72.44       72.13       71.82       71.52       71.21       70.91       70.60       70.30       70.00    
  40  -1000.0       83.62       83.59       83.54       83.47       83.37       83.26       83.11       82.95       82.77    
        82.56       82.33       82.07       81.79       81.49       81.16       80.83       80.50       80.17       79.84    
        79.49       79.14       78.79       78.44       78.09       77.74       77.40       77.05       76.71       76.37    
        76.03       75.70       75.36       75.03       74.70       74.38       74.05       73.73       73.41       73.09    
        72.78       72.46       72.15       71.84       71.53       71.22       70.92       70.61       70.31       70.00    
  41  -1000.0       83.62       83.59       83.54       83.47       83.37       83.25       83.11       82.95       82.76    
        82.55       82.32       82.07       81.79       81.49       81.16       80.83       80.50       80.17       79.84    
        79.49       79.15       78.80       78.45       78.10       77.76       77.42       77.07       76.73       76.40    
        76.06       75.72       75.39       75.06       74.73       74.40       74.08       73.76       73.43       73.12    
        72.80       72.48       72.17       71.86       71.55       71.24       70.93       70.62       70.31       70.00    
  42  -1000.0     -1000.0       83.59       83.54       83.46       83.36       83.24       83.10       82.94       82.75    
        82.55       82.32       82.06       81.79       81.49       81.16       80.83       80.51       80.18       79.85    
        79.50       79.15       78.81       78.46       78.12       77.78       77.43       77.09       76.75       76.42    
        76.08       75.75       75.41       75.08       74.75       74.43       74.10       73.78       73.46       73.14    
        72.82       72.50       72.19       71.87       71.56       71.25       70.93       70.62       70.31       70.00    
  43  -1000.0     -1000.0     -1000.0       83.53       83.45       83.35       83.23       83.09       82.93       82.74    
        82.54       82.31       82.06       81.78       81.48       81.16       80.83       80.51       80.18       79.85    
        79.51       79.16       78.82       78.47       78.13       77.79       77.45       77.11       76.77       76.43    
        76.10       75.76       75.43       75.10       74.77       74.45       74.12       73.80       73.47       73.15    
        72.83       72.52       72.20       71.88       71.57       71.25       70.94       70.63       70.31       70.00    
  44  -1000.0     -1000.0     -1000.0     -1000.0       83.43       83.33       83.21       83.07       82.91       82.73    
        82.53       82.30       82.05       81.78       81.48       81.16       80.83       80.51       80.18       79.86    
        79.51       79.17       78.82       78.48       78.14       77.80       77.46       77.12       76.78       76.45    
        76.11       75.78       75.45       75.12       74.79       74.46       74.14       73.81       73.49       73.17    
        72.85       72.53       72.21       71.89       71.58       71.26       70.94       70.63       70.31       70.00    
  45  -1000.0     -1000.0     -1000.0     -1000.0     -1000.0       83.31       83.19       83.05       82.89       82.72    
        82.52       82.29       82.05       81.78       81.48       81.16       80.83       80.51       80.19       79.86    
        79.52       79.17       78.83       78.49       78.15       77.81       77.47       77.13       76.79       76.46    
        76.13       75.79       75.46       75.13       74.80       74.48       74.15       73.82       73.50       73.18    
        72.86       72.54       72.22       71.90       71.58       71.27       70.95       70.63       70.32       70.00    
  46  -1000.0     -1000.0     -1000.0     -1000.0     -1000.0     -1000.0       83.16       83.03       82.87       82.70    
        82.50       82.28       82.04       81.77       81.48       81.16       80.83       80.51       80.19       79.86    
        79.52       79.18       78.83       78.49       78.15       77.81       77.48       77.14       76.80       76.47    
        76.14       75.80       75.47       75.14       74.81       74.49       74.16       73.83       73.51       73.19    
        72.87       72.55       72.23       71.91       71.59       71.27       70.95       70.63       70.32       70.00    
  47  -1000.0     -1000.0     -1000.0     -1000.0     -1000.0     -1000.0     -1000.0       83.00       82.85       82.68    
        82.49       82.27       82.03       81.77       81.47       81.15       80.83       80.51       80.19       79.86    
        79.52       79.18       78.84       78.50       78.16       77.82       77.48       77.15       76.81       76.48    
        76.14       75.81       75.48       75.15       74.82       74.49       74.17       73.84       73.52       73.19    
        72.87       72.55       72.23       71.91       71.59       71.27       70.95       70.64       70.32       70.00    
  48  -1000.0     -1000.0     -1000.0     -1000.0     -1000.0     -1000.0     -1000.0     -1000.0       82.82       82.65    
        82.47       82.26       82.03       81.76       81.47       81.15       80.83       80.51       80.19       79.86    
        79.52       79.18       78.84       78.50       78.16       77.82       77.49       77.15       76.81       76.48    
        76.15       75.82       75.48       75.15       74.83       74.50       74.17       73.85       73.52       73.20    
        72.88       72.56       72.23       71.91       71.59       71.27       70.96       70.64       70.32       70.00    
  49  -1000.0     -1000.0     -1000.0     -1000.0     -1000.0     -1000.0     -1000.0     -1000.0     -1000.0       82.62    
        82.46       82.26       82.02       81.76       81.47       81.15       80.83       80.51       80.19       79.86    
        79.52       79.18       78.84       78.50       78.16       77.83       77.49       77.15       76.82       76.48    
        76.15       75.82       75.49       75.16       74.83       74.50       74.17       73.85       73.52       73.20    
        72.88       72.56       72.24       71.92       71.60       71.28       70.96       70.64       70.32       70.00    
  50  -1000.0     -1000.0     -1000.0     -1000.0     -1000.0     -1000.0     -1000.0     -1000.0     -1000.0     -1000.0    
      -1000.0     -1000.0     -1000.0     -1000.0     -1000.0     -1000.0     -1000.0     -1000.0     -1000.0     -1000.0    
      -1000.0     -1000.0     -1000.0     -1000.0     -1000.0     -1000.0     -1000.0     -1000.0     -1000.0     -1000.0    
      -1000.0     -1000.0     -1000.0     -1000.0     -1000.0     -1000.0     -1000.0     -1000.0     -1000.0     -1000.0    
      -1000.0     -1000.0     -1000.0     -1000.0     -1000.0     -1000.0     -1000.0     -1000.0     -1000.0       70.00    

 HEAD WILL BE SAVED ON UNIT   51 AT END OF TIME STEP    1, STRESS PERIOD    1

 DRAWDOWN WILL BE SAVED ON UNIT   52 AT END OF TIME STEP    1, STRESS PERIOD    1
1
  VOLUMETRIC BUDGET FOR ENTIRE MODEL AT END OF TIME STEP    1, STRESS PERIOD   1
  ------------------------------------------------------------------------------

     CUMULATIVE VOLUMES      L**3       RATES FOR THIS TIME STEP      L**3/T
     ------------------                 ------------------------

           IN:                                      IN:
           ---                                      ---
             STORAGE =           0.0000               STORAGE =           0.0000
       CONSTANT HEAD =           0.0000         CONSTANT HEAD =           0.0000
               WELLS =         375.0000                 WELLS =         375.0000
       RIVER LEAKAGE =        4044.3440         RIVER LEAKAGE =        4044.3440
                  ET =           0.0000                    ET =           0.0000
            RECHARGE =        7120.0000              RECHARGE =        7120.0000

            TOTAL IN =       11539.3438              TOTAL IN =       11539.3438

          OUT:                                     OUT:
          ----                                     ----
             STORAGE =           0.0000               STORAGE =           0.0000
       CONSTANT HEAD =        5133.9751         CONSTANT HEAD =        5133.9751
               WELLS =        6000.0000                 WELLS =        6000.0000
       RIVER LEAKAGE =         125.1192         RIVER LEAKAGE =         125.1192
                  ET =         280.2318                    ET =         280.2318
            RECHARGE =           0.0000              RECHARGE =           0.0000

           TOTAL OUT =       11539.3252             TOTAL OUT =       11539.3252

            IN - OUT =       1.8555E-02              IN - OUT =       1.8555E-02

 PERCENT DISCREPANCY =           0.00     PERCENT DISCREPANCY =           0.00






         TIME SUMMARY AT END OF TIME STEP    1 IN STRESS PERIOD    1
                    SECONDS     MINUTES      HOURS       DAYS        YEARS
                    -----------------------------------------------------------
   TIME STEP LENGTH  86400.      1440.0      24.000      1.0000     2.73785E-03
 STRESS PERIOD TIME  86400.      1440.0      24.000      1.0000     2.73785E-03
         TOTAL TIME  86400.      1440.0      24.000      1.0000     2.73785E-03
1

 Run end date and time (yyyy/mm/dd hh:mm:ss): 2026/02/25  3:35:30
 Elapsed run time: 13.859 Seconds

