                                  MODFLOW-2005     
      U.S. GEOLOGICAL SURVEY MODULAR FINITE-DIFFERENCE GROUND-WATER FLOW MODEL
                            VERSION 1.12.00 2/3/2017

 LIST FILE: static_ensemble_1323131.list
                         UNIT    2

 OPENING static_ensemble_1323131.dis
 FILE TYPE:DIS   UNIT   11   STATUS:OLD    
 FORMAT:FORMATTED              ACCESS:SEQUENTIAL          

 OPENING static_ensemble_1323131.bas
 FILE TYPE:BAS6   UNIT   13   STATUS:OLD    
 FORMAT:FORMATTED              ACCESS:SEQUENTIAL          

 OPENING static_ensemble_1323131.lpf
 FILE TYPE:LPF   UNIT   15   STATUS:OLD    
 FORMAT:FORMATTED              ACCESS:SEQUENTIAL          

 OPENING static_ensemble_1323131.evt
 FILE TYPE:EVT   UNIT   22   STATUS:OLD    
 FORMAT:FORMATTED              ACCESS:SEQUENTIAL          

 OPENING static_ensemble_1323131.rch
 FILE TYPE:RCH   UNIT   19   STATUS:OLD    
 FORMAT:FORMATTED              ACCESS:SEQUENTIAL          

 OPENING static_ensemble_1323131.riv
 FILE TYPE:RIV   UNIT   18   STATUS:OLD    
 FORMAT:FORMATTED              ACCESS:SEQUENTIAL          

 OPENING static_ensemble_1323131.wel
 FILE TYPE:WEL   UNIT   20   STATUS:OLD    
 FORMAT:FORMATTED              ACCESS:SEQUENTIAL          

 OPENING static_ensemble_1323131.oc
 FILE TYPE:OC   UNIT   14   STATUS:OLD    
 FORMAT:FORMATTED              ACCESS:SEQUENTIAL          

 OPENING static_ensemble_1323131.pcg
 FILE TYPE:PCG   UNIT   27   STATUS:OLD    
 FORMAT:FORMATTED              ACCESS:SEQUENTIAL          

 OPENING static_ensemble_1323131.cbc
 FILE TYPE:DATA(BINARY)   UNIT   53   STATUS:REPLACE
 FORMAT:UNFORMATTED            ACCESS:STREAM              

 OPENING static_ensemble_1323131.hds
 FILE TYPE:DATA(BINARY)   UNIT   51   STATUS:REPLACE
 FORMAT:UNFORMATTED            ACCESS:STREAM              

 OPENING static_ensemble_1323131.ddn
 FILE TYPE:DATA(BINARY)   UNIT   52   STATUS:REPLACE
 FORMAT:UNFORMATTED            ACCESS:STREAM              

 BAS -- BASIC PACKAGE, VERSION 7, 5/2/2005 INPUT READ FROM UNIT   13
 
 MODFLOW was compiled using mixed precision
 Precision of REAL variables:           6
 Precision of DOUBLE PRECISION variables:          15

 DISCRETIZATION INPUT DATA READ FROM UNIT   11
 # DIS package for MODFLOW-2005 generated by Flopy 3.10.0
    3 LAYERS        50 ROWS        50 COLUMNS
    1 STRESS PERIOD(S) IN SIMULATION
 MODEL TIME UNIT IS DAYS
 MODEL LENGTH UNIT IS METERS
  Confining bed flag for each layer:
   0   0   0

                     DELR =   1000.00    

                     DELC =   1000.00    



           TOP ELEVATION OF LAYER 1
 READING ON UNIT   11 WITH FORMAT: (50E15.6)           



             MODEL LAYER BOTTOM EL. FOR LAYER   1
 READING ON UNIT   11 WITH FORMAT: (50E15.6)           



             MODEL LAYER BOTTOM EL. FOR LAYER   2
 READING ON UNIT   11 WITH FORMAT: (50E15.6)           



             MODEL LAYER BOTTOM EL. FOR LAYER   3
 READING ON UNIT   11 WITH FORMAT: (50E15.6)           


 STRESS PERIOD     LENGTH       TIME STEPS     MULTIPLIER FOR DELT    SS FLAG
 ----------------------------------------------------------------------------
        1         1.000000          1                    1.000         SS

 STEADY-STATE SIMULATION



 
 # BAS6 package for MODFLOW-2005 generated by Flopy 3.10.0                       
 THE FREE FORMAT OPTION HAS BEEN SELECTED



                     BOUNDARY ARRAY FOR LAYER   1
 READING ON UNIT   13 WITH FORMAT: (50I10)             



                     BOUNDARY ARRAY FOR LAYER   2
 READING ON UNIT   13 WITH FORMAT: (50I10)             



                     BOUNDARY ARRAY FOR LAYER   3
 READING ON UNIT   13 WITH FORMAT: (50I10)             

 AQUIFER HEAD WILL BE SET TO  -999.99     AT ALL NO-FLOW NODES (IBOUND=0).



                       INITIAL HEAD FOR LAYER   1
 READING ON UNIT   13 WITH FORMAT: (50E15.6)           



                       INITIAL HEAD FOR LAYER   2
 READING ON UNIT   13 WITH FORMAT: (50E15.6)           



                       INITIAL HEAD FOR LAYER   3
 READING ON UNIT   13 WITH FORMAT: (50E15.6)           
 # OC package for MODFLOW-2005 generated by Flopy 3.10.0

 OUTPUT CONTROL IS SPECIFIED ONLY AT TIME STEPS FOR WHICH OUTPUT IS DESIRED
 COMPACT CELL-BY-CELL BUDGET FILES WILL BE WRITTEN
 AUXILIARY DATA WILL BE SAVED IN CELL-BY-CELL BUDGET FILES
 HEAD PRINT FORMAT CODE IS   0    DRAWDOWN PRINT FORMAT CODE IS   0
 HEADS WILL BE SAVED ON UNIT   51    DRAWDOWNS WILL BE SAVED ON UNIT   52

 LPF -- LAYER-PROPERTY FLOW PACKAGE, VERSION 7, 5/2/2005
         INPUT READ FROM UNIT   15
 # LPF package for MODFLOW-2005 generated by Flopy 3.10.0
 CELL-BY-CELL FLOWS WILL BE SAVED ON UNIT   53
 HEAD AT CELLS THAT CONVERT TO DRY= -1.00000E+30
 No named parameters
 STORAGECOEFFICIENT OPTION:
 Read storage coefficient rather than specific storage

   LAYER FLAGS:
 LAYER       LAYTYP        LAYAVG         CHANI        LAYVKA        LAYWET
 ---------------------------------------------------------------------------
    1             1             0     1.000E+00             0             0
    2             1             0     1.000E+00             0             0
    3             1             0     1.000E+00             0             0

   INTERPRETATION OF LAYER FLAGS:
                        INTERBLOCK     HORIZONTAL    DATA IN
         LAYER TYPE   TRANSMISSIVITY   ANISOTROPY   ARRAY VKA   WETTABILITY
 LAYER      (LAYTYP)      (LAYAVG)       (CHANI)      (LAYVKA)      (LAYWET)
 ---------------------------------------------------------------------------
    1   CONVERTIBLE      HARMONIC     1.000E+00    VERTICAL K  NON-WETTABLE
    2   CONVERTIBLE      HARMONIC     1.000E+00    VERTICAL K  NON-WETTABLE
    3   CONVERTIBLE      HARMONIC     1.000E+00    VERTICAL K  NON-WETTABLE

 WETTING CAPABILITY IS NOT ACTIVE IN ANY LAYER



              HYD. COND. ALONG ROWS FOR LAYER   1
 READING ON UNIT   15 WITH FORMAT: (50E15.6)           



                VERTICAL HYD. COND. FOR LAYER   1
 READING ON UNIT   15 WITH FORMAT: (50E15.6)           



              HYD. COND. ALONG ROWS FOR LAYER   2
 READING ON UNIT   15 WITH FORMAT: (50E15.6)           



                VERTICAL HYD. COND. FOR LAYER   2
 READING ON UNIT   15 WITH FORMAT: (50E15.6)           



              HYD. COND. ALONG ROWS FOR LAYER   3
 READING ON UNIT   15 WITH FORMAT: (50E15.6)           



                VERTICAL HYD. COND. FOR LAYER   3
 READING ON UNIT   15 WITH FORMAT: (50E15.6)           

 WEL -- WELL PACKAGE, VERSION 7, 5/2/2005 INPUT READ FROM UNIT   20
 # WEL package for MODFLOW-2005 generated by Flopy 3.10.0
 No named parameters
 MAXIMUM OF      3 ACTIVE WELLS AT ONE TIME


     0 Well parameters

 RIV -- RIVER PACKAGE, VERSION 7, 5/2/2005 INPUT READ FROM UNIT   18
 # RIV package for MODFLOW-2005 generated by Flopy 3.10.0
 No named parameters
 MAXIMUM OF     49 ACTIVE RIVER REACHES AT ONE TIME
 CELL-BY-CELL FLOWS WILL BE SAVED ON UNIT   53


     0 River parameters

 EVT -- EVAPOTRANSPIRATION PACKAGE, VERSION 7, 5/2/2005
         INPUT READ FROM UNIT   22
 # EVT package for MODFLOW-2005 generated by Flopy 3.10.0
 No named parameters
 OPTION 3 -- EVAPOTRANSPIRATION FROM HIGHEST ACTIVE NODE IN EACH VERTICAL COLUMN
 CELL-BY-CELL FLOWS WILL BE SAVED ON UNIT   53


     0 Evapotranspiration parameters

 RCH -- RECHARGE PACKAGE, VERSION 7, 5/2/2005 INPUT READ FROM UNIT   19
 # RCH package for MODFLOW-2005 generated by Flopy 3.10.0
 No named parameters
 OPTION 3 -- RECHARGE TO HIGHEST ACTIVE NODE IN EACH VERTICAL COLUMN
 CELL-BY-CELL FLOWS WILL BE SAVED ON UNIT   53


     0 Recharge parameters

 PCG -- CONJUGATE-GRADIENT SOLUTION PACKAGE, VERSION 7, 5/2/2005
 # PCG package for MODFLOW-2005 generated by Flopy 3.10.0
 MAXIMUM OF   5000 CALLS OF SOLUTION ROUTINE
 MAXIMUM OF    500 INTERNAL ITERATIONS PER CALL TO SOLUTION ROUTINE
 MATRIX PRECONDITIONING TYPE :    1



                                    SOLUTION BY THE CONJUGATE-GRADIENT METHOD
                                   -------------------------------------------
                    MAXIMUM NUMBER OF CALLS TO PCG ROUTINE =     5000
                        MAXIMUM ITERATIONS PER CALL TO PCG =      500
                               MATRIX PRECONDITIONING TYPE =        1
        RELAXATION FACTOR (ONLY USED WITH PRECOND. TYPE 1) =    0.97000E+00
 PARAMETER OF POLYNOMIAL PRECOND. = 2 (2) OR IS CALCULATED :        0
                         HEAD CHANGE CRITERION FOR CLOSURE =    0.10000E-04
                     RESIDUAL CHANGE CRITERION FOR CLOSURE =    0.10000E-04
            PCG HEAD AND RESIDUAL CHANGE PRINTOUT INTERVAL =      999
     PRINTING FROM SOLVER IS LIMITED(1) OR SUPPRESSED (>1) =        3
                            STEADY-STATE DAMPING PARAMETER =    0.10000E-01
                               TRANSIENT DAMPING PARAMETER =    0.10000E-01
1
                            STRESS PERIOD NO.    1, LENGTH =   1.000000    
                            -----------------------------------------------

                              NUMBER OF TIME STEPS =     1

                               MULTIPLIER FOR DELT =     1.000

                            INITIAL TIME STEP SIZE =   1.000000    

 WELL NO.  LAYER   ROW   COL   STRESS RATE         
 --------------------------------------------------
      1      3     22     39      -1500.    
      2      1     13     15      -4500.    
      3      1     25     26       375.0    

      3 WELLS

 REACH NO.  LAYER   ROW   COL     STAGE      CONDUCTANCE     BOTTOM EL.         
 -------------------------------------------------------------------------------
      1      1     25      2       100.5           50.00           98.00    
      2      1     25      3       99.50           50.00           97.00    
      3      1     25      4       98.50           50.00           96.00    
      4      1     25      5       97.50           50.00           95.00    
      5      1     25      6       96.50           50.00           94.00    
      6      1     25      7       95.50           50.00           93.00    
      7      1     25      8       94.50           50.00           92.00    
      8      1     25      9       93.50           50.00           91.00    
      9      1     25     10       92.50           50.00           90.00    
     10      1     25     11       91.50           50.00           89.00    
     11      1     25     12       90.50           50.00           88.00    
     12      1     25     13       89.50           50.00           87.00    
     13      1     25     14       88.50           50.00           86.00    
     14      1     25     15       87.50           50.00           85.00    
     15      1     25     16       86.50           50.00           84.00    
     16      1     25     17       85.50           50.00           83.00    
     17      1     25     18       84.50           50.00           82.00    
     18      1     25     19       83.50           50.00           81.00    
     19      1     25     20       82.50           50.00           80.00    
     20      1     25     21       81.50           50.00           79.00    
     21      1     25     22       80.50           50.00           78.00    
     22      1     25     23       79.50           50.00           77.00    
     23      1     25     24       78.50           50.00           76.00    
     24      1     25     25       77.50           50.00           75.00    
     25      1     25     26       77.40           50.00           74.90    
     26      1     25     27       77.30           50.00           74.80    
     27      1     25     28       77.20           50.00           74.70    
     28      1     25     29       77.10           50.00           74.60    
     29      1     25     30       77.00           50.00           74.50    
     30      1     25     31       76.90           50.00           74.40    
     31      1     25     32       76.80           50.00           74.30    
     32      1     25     33       76.70           50.00           74.20    
     33      1     25     34       76.60           50.00           74.10    
     34      1     25     35       76.50           50.00           74.00    
     35      1     25     36       76.40           50.00           73.90    
     36      1     25     37       76.30           50.00           73.80    
     37      1     25     38       76.20           50.00           73.70    
     38      1     25     39       76.10           50.00           73.60    
     39      1     25     40       76.00           50.00           73.50    
     40      1     25     41       75.90           50.00           73.40    
     41      1     25     42       75.80           50.00           73.30    
     42      1     25     43       75.70           50.00           73.20    
     43      1     25     44       75.60           50.00           73.10    
     44      1     25     45       75.50           50.00           73.00    
     45      1     25     46       75.40           50.00           72.90    
     46      1     25     47       75.30           50.00           72.80    
     47      1     25     48       75.20           50.00           72.70    
     48      1     25     49       75.10           50.00           72.60    
     49      1     25     50       75.00           50.00           72.50    

     49 RIVER REACHES



                         ET SURFACE
 READING ON UNIT   22 WITH FORMAT: (50E15.6)           



            EVAPOTRANSPIRATION RATE
 READING ON UNIT   22 WITH FORMAT: (50E15.6)           

         EXTINCTION DEPTH =   10.0000    



                           RECHARGE
 READING ON UNIT   19 WITH FORMAT: (50E15.6)           
 
 SOLVING FOR HEAD 

 OUTPUT CONTROL FOR STRESS PERIOD    1   TIME STEP    1
    SAVE HEAD FOR ALL LAYERS
    SAVE DRAWDOWN FOR ALL LAYERS
    SAVE BUDGET
    PRINT HEAD FOR ALL LAYERS
    PRINT BUDGET
 UBDSV2 SAVING "   CONSTANT HEAD" ON UNIT  53 AT TIME STEP  1, STRESS PERIOD   1
 UBDSV1 SAVING "FLOW RIGHT FACE " ON UNIT  53 AT TIME STEP  1, STRESS PERIOD   1
 UBDSV1 SAVING "FLOW FRONT FACE " ON UNIT  53 AT TIME STEP  1, STRESS PERIOD   1
 UBDSV1 SAVING "FLOW LOWER FACE " ON UNIT  53 AT TIME STEP  1, STRESS PERIOD   1
 UBDSV4 SAVING "   RIVER LEAKAGE" ON UNIT  53 AT TIME STEP  1, STRESS PERIOD   1
 UBDSV3 SAVING "              ET" ON UNIT  53 AT TIME STEP  1, STRESS PERIOD   1
 UBDSV3 SAVING "        RECHARGE" ON UNIT  53 AT TIME STEP  1, STRESS PERIOD   1
1
              HEAD IN LAYER   1 AT END OF TIME STEP   1 IN STRESS PERIOD    1
  ---------------------------------------------------------------------------

            1           2           3           4           5           6           7           8           9          10
           11          12          13          14          15          16          17          18          19          20
           21          22          23          24          25          26          27          28          29          30
           31          32          33          34          35          36          37          38          39          40
           41          42          43          44          45          46          47          48          49          50
 ........................................................................................................................
   1  -1000.0     -1000.0     -1000.0     -1000.0     -1000.0     -1000.0     -1000.0     -1000.0     -1000.0     -1000.0    
      -1000.0     -1000.0     -1000.0     -1000.0     -1000.0     -1000.0     -1000.0     -1000.0     -1000.0     -1000.0    
      -1000.0     -1000.0     -1000.0     -1000.0     -1000.0     -1000.0     -1000.0     -1000.0     -1000.0     -1000.0    
      -1000.0     -1000.0     -1000.0     -1000.0     -1000.0     -1000.0     -1000.0     -1000.0     -1000.0     -1000.0    
      -1000.0     -1000.0     -1000.0     -1000.0     -1000.0     -1000.0     -1000.0     -1000.0     -1000.0       70.00    
   2  -1000.0     -1000.0     -1000.0     -1000.0     -1000.0       105.1       104.8       104.4       103.8       103.2    
        102.6       101.9       101.2       100.3       99.40       98.39       97.41       96.44       95.50       94.58    
        93.67       92.78       91.90       91.04       90.18       89.34       88.50       87.67       86.84       86.02    
        85.21       84.40       83.59       82.79       82.00       81.20       80.41       79.62       78.83       78.04    
        77.25       76.46       75.67       74.87       74.07       73.27       72.46       71.65       70.83       70.00    
   3  -1000.0     -1000.0     -1000.0     -1000.0       105.5       105.2       104.9       104.4       103.8       103.2    
        102.6       101.9       101.2       100.3       99.37       98.36       97.38       96.41       95.47       94.55    
        93.65       92.76       91.88       91.02       90.17       89.32       88.48       87.65       86.83       86.01    
        85.20       84.39       83.58       82.78       81.98       81.19       80.40       79.61       78.82       78.03    
        77.24       76.45       75.66       74.87       74.07       73.27       72.46       71.65       70.83       70.00    
   4  -1000.0     -1000.0     -1000.0       105.9       105.6       105.3       104.8       104.3       103.8       103.2    
        102.6       101.9       101.1       100.2       99.31       98.30       97.31       96.35       95.41       94.50    
        93.60       92.71       91.84       90.98       90.13       89.29       88.45       87.62       86.80       85.98    
        85.17       84.36       83.56       82.76       81.96       81.17       80.38       79.59       78.80       78.01    
        77.23       76.44       75.65       74.86       74.06       73.26       72.46       71.65       70.83       70.00    
   5  -1000.0     -1000.0       106.1       105.9       105.6       105.3       104.8       104.3       103.8       103.2    
        102.6       101.8       101.0       100.2       99.21       98.20       97.21       96.26       95.33       94.42    
        93.53       92.65       91.78       90.93       90.08       89.24       88.41       87.58       86.76       85.95    
        85.14       84.33       83.53       82.73       81.93       81.14       80.35       79.56       78.77       77.99    
        77.20       76.42       75.63       74.84       74.05       73.25       72.45       71.64       70.82       70.00    
   6  -1000.0       106.3       106.2       105.9       105.6       105.2       104.8       104.3       103.8       103.2    
        102.5       101.7       100.9       100.0       99.07       98.05       97.07       96.13       95.21       94.31    
        93.43       92.56       91.71       90.86       90.02       89.18       88.35       87.53       86.71       85.90    
        85.09       84.28       83.48       82.68       81.89       81.10       80.31       79.52       78.74       77.96    
        77.17       76.39       75.61       74.82       74.03       73.24       72.44       71.63       70.82       70.00    
   7  -1000.0       106.3       106.1       105.9       105.6       105.2       104.8       104.3       103.8       103.1    
        102.4       101.6       100.8       99.85       98.88       97.86       96.89       95.96       95.06       94.18    
        93.32       92.46       91.61       90.77       89.94       89.11       88.28       87.46       86.64       85.83    
        85.03       84.22       83.42       82.63       81.84       81.05       80.26       79.48       78.70       77.92    
        77.14       76.36       75.58       74.79       74.01       73.22       72.42       71.62       70.82       70.00    
   8  -1000.0       106.2       106.1       105.8       105.6       105.2       104.8       104.3       103.7       103.0    
        102.3       101.4       100.6       99.61       98.63       97.62       96.67       95.76       94.88       94.03    
        93.18       92.34       91.51       90.68       89.85       89.02       88.20       87.38       86.57       85.76    
        84.95       84.15       83.36       82.56       81.77       80.99       80.20       79.42       78.64       77.87    
        77.09       76.32       75.54       74.76       73.98       73.20       72.41       71.61       70.81       70.00    
   9  -1000.0       106.1       106.0       105.8       105.5       105.2       104.7       104.2       103.6       102.9    
        102.1       101.2       100.3       99.31       98.30       97.30       96.38       95.52       94.68       93.85    
        93.03       92.21       91.39       90.57       89.75       88.92       88.11       87.29       86.48       85.67    
        84.87       84.07       83.28       82.48       81.70       80.91       80.13       79.36       78.58       77.81    
        77.04       76.27       75.50       74.73       73.95       73.17       72.39       71.60       70.80       70.00    
  10  -1000.0       106.0       105.9       105.7       105.5       105.1       104.7       104.1       103.5       102.8    
        101.9       101.0       99.98       98.91       97.85       96.88       96.03       95.24       94.46       93.67    
        92.87       92.07       91.26       90.45       89.63       88.82       88.00       87.19       86.38       85.58    
        84.77       83.98       83.18       82.40       81.61       80.83       80.05       79.28       78.51       77.74    
        76.98       76.21       75.45       74.68       73.92       73.15       72.37       71.59       70.80       70.00    
  11  -1000.0       106.0       105.9       105.7       105.4       105.1       104.6       104.0       103.4       102.6    
        101.7       100.7       99.61       98.38       97.19       96.33       95.63       94.94       94.23       93.48    
        92.72       91.93       91.14       90.33       89.52       88.70       87.89       87.08       86.27       85.47    
        84.67       83.87       83.08       82.29       81.51       80.74       79.96       79.19       78.43       77.67    
        76.91       76.15       75.40       74.64       73.88       73.11       72.35       71.57       70.79       70.00    
  12  -1000.0       105.9       105.8       105.6       105.4       105.0       104.5       104.0       103.3       102.5    
        101.6       100.5       99.21       97.69       96.07       95.63       95.20       94.66       94.02       93.32    
        92.57       91.80       91.01       90.21       89.40       88.58       87.77       86.96       86.15       85.35    
        84.55       83.76       82.97       82.18       81.40       80.63       79.86       79.10       78.34       77.58    
        76.83       76.08       75.33       74.58       73.83       73.08       72.32       71.55       70.78       70.00    
  13  -1000.0       105.9       105.8       105.6       105.3       104.9       104.5       103.9       103.2       102.4    
        101.5       100.3       98.92       96.98       93.60       94.89       94.89       94.47       93.87       93.19    
        92.45       91.68       90.89       90.08       89.27       88.45       87.64       86.83       86.02       85.22    
        84.42       83.63       82.84       82.06       81.28       80.51       79.74       78.98       78.23       77.48    
        76.74       76.00       75.27       74.53       73.79       73.04       72.29       71.53       70.77       70.00    
  14  -1000.0       105.8       105.7       105.5       105.2       104.9       104.4       103.8       103.2       102.4    
        101.4       100.3       99.04       97.51       95.88       95.43       95.00       94.45       93.81       93.10    
        92.35       91.57       90.77       89.96       89.14       88.32       87.50       86.69       85.88       85.08    
        84.28       83.49       82.70       81.92       81.15       80.38       79.62       78.86       78.11       77.38    
        76.64       75.92       75.19       74.46       73.73       73.00       72.26       71.52       70.76       70.00    
  15  -1000.0       105.7       105.6       105.4       105.2       104.8       104.3       103.8       103.1       102.3    
        101.4       100.4       99.26       98.01       96.81       95.94       95.23       94.53       93.81       93.05    
        92.27       91.47       90.66       89.84       89.01       88.18       87.35       86.54       85.73       84.93    
        84.13       83.34       82.56       81.77       81.00       80.23       79.47       78.72       77.98       77.25    
        76.53       75.82       75.11       74.40       73.68       72.96       72.23       71.50       70.75       70.00    
  16  -1000.0       105.6       105.6       105.4       105.1       104.7       104.3       103.7       103.1       102.3    
        101.5       100.5       99.47       98.36       97.28       96.30       95.43       94.62       93.83       93.02    
        92.21       91.38       90.55       89.71       88.87       88.03       87.20       86.38       85.57       84.77    
        83.97       83.18       82.39       81.61       80.84       80.07       79.31       78.56       77.83       77.11    
        76.41       75.71       75.02       74.32       73.62       72.92       72.20       71.48       70.74       70.00    
  17  -1000.0       105.6       105.5       105.3       105.0       104.7       104.2       103.7       103.1       102.3    
        101.5       100.6       99.61       98.59       97.55       96.52       95.58       94.70       93.84       92.99    
        92.14       91.28       90.43       89.57       88.72       87.87       87.03       86.21       85.40       84.59    
        83.80       83.01       82.22       81.44       80.67       79.90       79.13       78.39       77.66       76.96    
        76.27       75.60       74.93       74.25       73.57       72.88       72.17       71.46       70.73       70.00    
  18  -1000.0       105.5       105.4       105.2       105.0       104.6       104.2       103.6       103.0       102.3    
        101.5       100.6       99.69       98.71       97.69       96.64       95.66       94.74       93.84       92.95    
        92.06       91.18       90.30       89.42       88.55       87.70       86.85       86.03       85.21       84.41    
        83.61       82.82       82.04       81.26       80.48       79.70       78.94       78.18       77.46       76.78    
        76.12       75.48       74.83       74.18       73.52       72.84       72.15       71.44       70.73       70.00    
  19  -1000.0       105.4       105.3       105.1       104.9       104.5       104.1       103.5       102.9       102.2    
        101.5       100.6       99.71       98.75       97.73       96.68       95.69       94.74       93.82       92.90    
        91.98       91.05       90.15       89.25       88.37       87.51       86.66       85.83       85.01       84.21    
        83.42       82.63       81.85       81.07       80.29       79.50       78.71       77.94       77.22       76.56    
        75.95       75.35       74.74       74.12       73.47       72.81       72.13       71.44       70.72       70.00    
  20  -1000.0       105.3       105.2       105.0       104.8       104.4       104.0       103.4       102.8       102.2    
        101.4       100.6       99.67       98.72       97.71       96.65       95.65       94.71       93.80       92.86    
        91.87       90.90       89.97       89.06       88.17       87.30       86.45       85.62       84.80       84.00    
        83.22       82.43       81.66       80.88       80.09       79.29       78.47       77.66       76.89       76.30    
        75.76       75.22       74.66       74.06       73.44       72.80       72.13       71.43       70.72       70.00    
  21  -1000.0       105.2       105.1       104.9       104.6       104.3       103.8       103.3       102.7       102.0    
        101.3       100.5       99.57       98.62       97.61       96.55       95.55       94.62       93.80       92.84    
        91.73       90.71       89.75       88.83       87.94       87.07       86.22       85.39       84.58       83.79    
        83.01       82.23       81.46       80.69       79.90       79.09       78.23       77.31       76.38       75.98    
        75.58       75.12       74.60       74.04       73.44       72.80       72.14       71.45       70.73       70.00    
  22  -1000.0       105.1       105.0       104.8       104.5       104.1       103.7       103.2       102.6       101.9    
        101.1       100.3       99.41       98.46       97.45       96.37       95.36       94.42       93.58       92.60    
        91.48       90.45       89.49       88.56       87.67       86.81       85.96       85.14       84.34       83.55    
        82.79       82.03       81.27       80.51       79.73       78.92       78.03       76.96       75.33       75.67    
        75.46       75.07       74.58       74.04       73.46       72.83       72.17       71.47       70.75       70.00    
  23  -1000.0       105.0       104.9       104.7       104.4       104.0       103.5       103.0       102.4       101.7    
        100.9       100.1       99.20       98.24       97.22       96.13       95.09       94.10       93.15       92.15    
        91.12       90.12       89.17       88.25       87.38       86.54       85.69       84.87       84.08       83.31    
        82.56       81.82       81.09       80.35       79.60       78.83       78.02       77.14       76.26       75.90    
        75.54       75.11       74.63       74.09       73.52       72.90       72.23       71.53       70.78       70.00    
  24  -1000.0       104.8       104.7       104.5       104.2       103.8       103.3       102.8       102.1       101.4    
        100.7       99.84       98.94       97.98       96.94       95.84       94.77       93.74       92.74       91.73    
        90.73       89.74       88.79       87.89       87.05       86.27       85.40       84.58       83.80       83.05    
        82.33       81.62       80.91       80.21       79.51       78.79       78.06       77.33       76.65       76.14    
        75.69       75.22       74.72       74.19       73.62       73.00       72.34       71.62       70.84       70.00    
  25  -1000.0       104.8       104.6       104.4       104.0       103.6       103.1       102.5       101.9       101.2    
        100.4       99.54       98.63       97.65       96.61       95.49       94.41       93.35       92.32       91.30    
        90.30       89.31       88.37       87.47       86.67       86.08       85.08       84.25       83.49       82.77    
        82.08       81.40       80.74       80.08       79.43       78.77       78.12       77.48       76.88       76.35    
        75.85       75.36       74.85       74.32       73.76       73.16       72.50       71.77       70.96       70.00    
  26  -1000.0       105.1       105.0       104.8       104.5       104.1       103.7       103.1       102.5       101.8    
        101.0       100.2       99.30       98.32       97.28       96.15       95.06       93.99       92.95       91.93    
        90.93       89.95       89.01       88.11       87.26       86.47       85.60       84.77       83.98       83.23    
        82.50       81.80       81.10       80.42       79.74       79.07       78.41       77.77       77.15       76.57    
        76.01       75.46       74.89       74.32       73.71       73.07       72.39       71.65       70.86       70.00    
  27  -1000.0       105.6       105.5       105.3       105.0       104.6       104.2       103.6       103.0       102.4    
        101.6       100.8       99.91       98.95       97.90       96.77       95.67       94.60       93.55       92.53    
        91.53       90.55       89.60       88.68       87.80       86.94       86.09       85.25       84.45       83.67    
        82.91       82.18       81.46       80.75       80.06       79.37       78.70       78.04       77.40       76.78    
        76.17       75.57       74.96       74.34       73.70       73.03       72.33       71.59       70.81       70.00    
  28  -1000.0       106.0       105.9       105.7       105.4       105.1       104.7       104.1       103.6       102.9    
        102.2       101.4       100.5       99.52       98.48       97.35       96.25       95.18       94.12       93.10    
        92.09       91.11       90.15       89.21       88.31       87.42       86.55       85.70       84.88       84.08    
        83.31       82.55       81.81       81.08       80.37       79.66       78.97       78.29       77.62       76.97    
        76.33       75.69       75.05       74.39       73.72       73.03       72.31       71.56       70.79       70.00    
  29  -1000.0       106.4       106.3       106.1       105.9       105.5       105.1       104.6       104.1       103.4    
        102.7       101.9       101.0       100.1       99.02       97.89       96.79       95.71       94.66       93.63    
        92.62       91.63       90.66       89.71       88.79       87.88       87.00       86.14       85.30       84.48    
        83.69       82.91       82.15       81.40       80.67       79.94       79.23       78.53       77.84       77.17    
        76.49       75.82       75.15       74.46       73.76       73.05       72.32       71.56       70.79       70.00    
  30  -1000.0       106.7       106.6       106.5       106.2       105.9       105.5       105.1       104.5       103.9    
        103.2       102.4       101.5       100.5       99.51       98.39       97.29       96.21       95.16       94.12    
        93.10       92.11       91.13       90.17       89.23       88.31       87.41       86.54       85.69       84.85    
        84.04       83.25       82.47       81.70       80.95       80.21       79.48       78.76       78.05       77.35    
        76.65       75.95       75.25       74.54       73.82       73.08       72.34       71.57       70.79       70.00    
  31  -1000.0       107.1       107.0       106.9       106.6       106.3       105.9       105.5       104.9       104.3    
        103.6       102.8       101.9       101.0       99.96       98.85       97.75       96.67       95.61       94.57    
        93.55       92.55       91.57       90.60       89.65       88.72       87.81       86.92       86.05       85.20    
        84.38       83.57       82.77       81.99       81.22       80.46       79.72       78.98       78.25       77.52    
        76.80       76.08       75.35       74.62       73.88       73.13       72.36       71.59       70.80       70.00    
  32  -1000.0       107.4       107.3       107.2       107.0       106.7       106.3       105.8       105.3       104.7    
        104.0       103.2       102.3       101.4       100.4       99.26       98.17       97.09       96.03       94.99    
        93.97       92.96       91.97       91.00       90.04       89.09       88.17       87.27       86.39       85.53    
        84.69       83.87       83.06       82.26       81.48       80.71       79.94       79.19       78.44       77.69    
        76.95       76.20       75.46       74.70       73.94       73.18       72.40       71.61       70.81       70.00    
  33  -1000.0       107.7       107.6       107.5       107.3       107.0       106.6       106.2       105.6       105.0    
        104.3       103.6       102.7       101.8       100.8       99.64       98.55       97.48       96.42       95.38    
        94.35       93.34       92.35       91.36       90.39       89.44       88.51       87.60       86.71       85.84    
        84.99       84.15       83.33       82.52       81.72       80.94       80.16       79.38       78.62       77.85    
        77.09       76.32       75.56       74.79       74.01       73.23       72.44       71.63       70.82       70.00    
  34  -1000.0       108.0       107.9       107.8       107.6       107.3       106.9       106.5       105.9       105.3    
        104.7       103.9       103.0       102.1       101.1       99.99       98.90       97.83       96.77       95.73    
        94.70       93.69       92.69       91.70       90.73       89.77       88.83       87.91       87.01       86.13    
        85.27       84.42       83.59       82.77       81.95       81.15       80.36       79.57       78.78       78.00    
        77.22       76.44       75.66       74.87       74.08       73.28       72.48       71.66       70.83       70.00    
  35  -1000.0       108.3       108.2       108.1       107.8       107.5       107.2       106.7       106.2       105.6    
        104.9       104.2       103.3       102.4       101.4       100.3       99.22       98.15       97.09       96.05    
        95.02       94.01       93.00       92.01       91.03       90.07       89.12       88.20       87.29       86.40    
        85.53       84.67       83.83       82.99       82.17       81.35       80.55       79.74       78.94       78.14    
        77.35       76.55       75.76       74.95       74.15       73.33       72.51       71.69       70.85       70.00    
  36  -1000.0       108.5       108.4       108.3       108.1       107.8       107.4       107.0       106.5       105.9    
        105.2       104.5       103.6       102.7       101.7       100.6       99.51       98.44       97.39       96.34    
        95.31       94.30       93.29       92.30       91.31       90.34       89.39       88.46       87.55       86.65    
        85.77       84.91       84.05       83.21       82.37       81.54       80.72       79.90       79.09       78.28    
        77.47       76.66       75.85       75.03       74.21       73.39       72.55       71.71       70.86       70.00    
  37  -1000.0       108.7       108.6       108.5       108.3       108.0       107.6       107.2       106.7       106.1    
        105.4       104.7       103.9       102.9       101.9       100.8       99.77       98.70       97.65       96.61    
        95.58       94.56       93.56       92.56       91.57       90.60       89.64       88.71       87.79       86.89    
        86.00       85.13       84.26       83.41       82.56       81.72       80.88       80.06       79.23       78.41    
        77.58       76.76       75.93       75.11       74.27       73.43       72.59       71.74       70.87       70.00    
  38  -1000.0       108.9       108.8       108.7       108.5       108.2       107.8       107.4       106.9       106.3    
        105.6       104.9       104.1       103.2       102.2       101.1       100.0       98.94       97.89       96.85    
        95.82       94.80       93.80       92.80       91.81       90.83       89.87       88.93       88.01       87.11    
        86.21       85.33       84.45       83.59       82.73       81.88       81.04       80.20       79.36       78.52    
        77.69       76.85       76.02       75.18       74.33       73.48       72.62       71.76       70.88       70.00    
  39  -1000.0       109.1       109.0       108.9       108.6       108.4       108.0       107.6       107.1       106.5    
        105.8       105.1       104.3       103.4       102.4       101.3       100.2       99.15       98.10       97.06    
        96.04       95.02       94.01       93.01       92.02       91.04       90.09       89.14       88.22       87.30    
        86.40       85.51       84.63       83.75       82.89       82.03       81.17       80.32       79.48       78.63    
        77.79       76.94       76.09       75.24       74.39       73.52       72.66       71.78       70.90       70.00    
  40  -1000.0       109.2       109.1       109.0       108.8       108.5       108.1       107.7       107.2       106.6    
        106.0       105.2       104.4       103.5       102.5       101.5       100.4       99.34       98.29       97.26    
        96.23       95.21       94.21       93.21       92.22       91.24       90.28       89.33       88.40       87.48    
        86.58       85.68       84.79       83.91       83.03       82.16       81.30       80.44       79.58       78.73    
        77.87       77.02       76.16       75.30       74.43       73.56       72.69       71.80       70.91       70.00    
  41  -1000.0       109.3       109.3       109.1       108.9       108.6       108.3       107.8       107.3       106.8    
        106.1       105.4       104.6       103.7       102.7       101.6       100.6       99.50       98.46       97.43    
        96.40       95.39       94.38       93.38       92.39       91.41       90.45       89.50       88.57       87.64    
        86.73       85.83       84.93       84.04       83.16       82.28       81.41       80.55       79.68       78.82    
        77.95       77.09       76.22       75.35       74.48       73.60       72.71       71.82       70.91       70.00    
  42  -1000.0       109.5       109.4       109.2       109.0       108.7       108.4       107.9       107.4       106.9    
        106.2       105.5       104.7       103.8       102.8       101.8       100.7       99.64       98.60       97.57    
        96.55       95.54       94.53       93.53       92.54       91.57       90.60       89.65       88.71       87.79    
        86.87       85.96       85.06       84.16       83.27       82.39       81.51       80.64       79.77       78.90    
        78.03       77.15       76.28       75.40       74.52       73.63       72.74       71.84       70.92       70.00    
  43  -1000.0       109.6       109.5       109.3       109.1       108.8       108.4       108.0       107.5       107.0    
        106.3       105.6       104.8       103.9       102.9       101.9       100.8       99.77       98.73       97.70    
        96.68       95.66       94.66       93.67       92.68       91.70       90.74       89.78       88.84       87.91    
        86.99       86.07       85.17       84.27       83.37       82.49       81.60       80.72       79.84       78.97    
        78.09       77.21       76.33       75.44       74.56       73.66       72.76       71.85       70.93       70.00    
  44  -1000.0       109.7       109.6       109.4       109.1       108.8       108.5       108.1       107.6       107.0    
        106.4       105.7       104.9       104.0       103.0       102.0       100.9       99.87       98.83       97.81    
        96.79       95.77       94.77       93.78       92.79       91.81       90.85       89.89       88.95       88.02    
        87.09       86.17       85.26       84.36       83.46       82.57       81.68       80.79       79.91       79.02    
        78.14       77.26       76.37       75.48       74.59       73.69       72.78       71.86       70.94       70.00    
  45  -1000.0       109.8       109.7       109.5       109.2       108.8       108.5       108.1       107.6       107.1    
        106.4       105.7       104.9       104.1       103.1       102.0       101.0       99.95       98.92       97.89    
        96.88       95.87       94.86       93.87       92.89       91.91       90.94       89.99       89.04       88.10    
        87.17       86.25       85.34       84.43       83.53       82.63       81.74       80.85       79.96       79.07    
        78.19       77.30       76.41       75.51       74.61       73.71       72.79       71.87       70.94       70.00    
  46  -1000.0     -1000.0       109.7       109.5       109.2       108.9       108.5       108.1       107.6       107.1    
        106.5       105.8       105.0       104.1       103.1       102.1       101.1       100.0       98.99       97.96    
        96.95       95.94       94.94       93.94       92.96       91.98       91.02       90.06       89.11       88.17    
        87.24       86.32       85.40       84.49       83.59       82.69       81.79       80.90       80.00       79.11    
        78.22       77.33       76.43       75.54       74.63       73.72       72.81       71.88       70.95       70.00    
  47  -1000.0     -1000.0     -1000.0       109.4       109.2       108.9       108.5       108.1       107.6       107.1    
        106.5       105.8       105.0       104.1       103.2       102.1       101.1       100.1       99.04       98.02    
        97.00       95.99       94.99       94.00       93.01       92.04       91.07       90.11       89.17       88.23    
        87.29       86.37       85.45       84.54       83.63       82.73       81.83       80.93       80.04       79.14    
        78.25       77.35       76.46       75.55       74.65       73.74       72.82       71.89       70.95       70.00    
  48  -1000.0     -1000.0     -1000.0     -1000.0       109.1       108.9       108.6       108.1       107.6       107.0    
        106.5       105.8       105.0       104.2       103.2       102.2       101.1       100.1       99.07       98.05    
        97.04       96.03       95.03       94.04       93.05       92.08       91.11       90.15       89.20       88.26    
        87.33       86.40       85.48       84.57       83.66       82.75       81.85       80.96       80.06       79.16    
        78.27       77.37       76.47       75.57       74.66       73.74       72.82       71.89       70.95       70.00    
  49  -1000.0     -1000.0     -1000.0     -1000.0     -1000.0       108.8       108.5       108.1       107.6       107.0    
        106.4       105.8       105.0       104.2       103.2       102.2       101.1       100.1       99.09       98.07    
        97.05       96.05       95.05       94.05       93.07       92.09       91.13       90.17       89.22       88.28    
        87.34       86.42       85.50       84.58       83.67       82.77       81.87       80.97       80.07       79.17    
        78.28       77.38       76.48       75.57       74.66       73.75       72.83       71.89       70.95       70.00    
  50  -1000.0     -1000.0     -1000.0     -1000.0     -1000.0     -1000.0     -1000.0     -1000.0     -1000.0     -1000.0    
      -1000.0     -1000.0     -1000.0     -1000.0     -1000.0     -1000.0     -1000.0     -1000.0     -1000.0     -1000.0    
      -1000.0     -1000.0     -1000.0     -1000.0     -1000.0     -1000.0     -1000.0     -1000.0     -1000.0     -1000.0    
      -1000.0     -1000.0     -1000.0     -1000.0     -1000.0     -1000.0     -1000.0     -1000.0     -1000.0     -1000.0    
      -1000.0     -1000.0     -1000.0     -1000.0     -1000.0     -1000.0     -1000.0     -1000.0     -1000.0       70.00    
1
              HEAD IN LAYER   2 AT END OF TIME STEP   1 IN STRESS PERIOD    1
  ---------------------------------------------------------------------------

            1           2           3           4           5           6           7           8           9          10
           11          12          13          14          15          16          17          18          19          20
           21          22          23          24          25          26          27          28          29          30
           31          32          33          34          35          36          37          38          39          40
           41          42          43          44          45          46          47          48          49          50
 ........................................................................................................................
   1  -1000.0     -1000.0     -1000.0     -1000.0     -1000.0     -1000.0     -1000.0     -1000.0     -1000.0     -1000.0    
      -1000.0     -1000.0     -1000.0     -1000.0     -1000.0     -1000.0     -1000.0     -1000.0     -1000.0     -1000.0    
      -1000.0     -1000.0     -1000.0     -1000.0     -1000.0     -1000.0     -1000.0     -1000.0     -1000.0     -1000.0    
      -1000.0     -1000.0     -1000.0     -1000.0     -1000.0     -1000.0     -1000.0     -1000.0     -1000.0     -1000.0    
      -1000.0     -1000.0     -1000.0     -1000.0     -1000.0     -1000.0     -1000.0     -1000.0     -1000.0       70.00    
   2  -1000.0     -1000.0     -1000.0     -1000.0     -1000.0     -1000.0     -1000.0       104.4       103.8       103.2    
        102.6       101.9       101.2       100.3       99.40       98.39       97.41       96.44       95.50       94.58    
        93.67       92.78       91.90       91.04       90.18       89.34       88.50       87.67       86.84       86.02    
        85.21       84.40       83.59       82.79       82.00       81.20       80.41       79.62       78.83       78.04    
        77.25       76.46       75.67       74.87       74.07       73.27       72.46       71.65       70.83       70.00    
   3  -1000.0     -1000.0     -1000.0     -1000.0     -1000.0     -1000.0       104.9       104.4       103.8       103.2    
        102.6       101.9       101.2       100.3       99.37       98.36       97.38       96.41       95.47       94.55    
        93.65       92.76       91.88       91.02       90.17       89.32       88.48       87.65       86.83       86.01    
        85.20       84.39       83.58       82.78       81.98       81.19       80.40       79.61       78.82       78.03    
        77.24       76.45       75.66       74.87       74.07       73.27       72.46       71.65       70.83       70.00    
   4  -1000.0     -1000.0     -1000.0     -1000.0     -1000.0       105.3       104.8       104.3       103.8       103.2    
        102.6       101.9       101.1       100.2       99.31       98.30       97.31       96.35       95.41       94.50    
        93.60       92.71       91.84       90.98       90.13       89.29       88.45       87.62       86.80       85.98    
        85.17       84.36       83.56       82.76       81.96       81.17       80.38       79.59       78.80       78.01    
        77.23       76.44       75.65       74.86       74.06       73.26       72.46       71.65       70.83       70.00    
   5  -1000.0     -1000.0     -1000.0     -1000.0       105.6       105.3       104.8       104.3       103.8       103.2    
        102.6       101.8       101.0       100.2       99.21       98.20       97.21       96.26       95.33       94.42    
        93.53       92.65       91.78       90.93       90.08       89.24       88.41       87.58       86.76       85.95    
        85.14       84.33       83.53       82.73       81.93       81.14       80.35       79.56       78.77       77.99    
        77.20       76.42       75.63       74.84       74.05       73.25       72.45       71.64       70.82       70.00    
   6  -1000.0     -1000.0     -1000.0       105.9       105.6       105.2       104.8       104.3       103.8       103.2    
        102.5       101.7       100.9       100.0       99.07       98.05       97.07       96.13       95.21       94.31    
        93.43       92.56       91.71       90.86       90.02       89.18       88.35       87.53       86.71       85.90    
        85.09       84.28       83.48       82.68       81.89       81.10       80.31       79.52       78.74       77.96    
        77.17       76.39       75.61       74.82       74.03       73.24       72.44       71.63       70.82       70.00    
   7  -1000.0     -1000.0       106.1       105.9       105.6       105.2       104.8       104.3       103.8       103.1    
        102.4       101.6       100.8       99.85       98.88       97.86       96.89       95.96       95.06       94.18    
        93.32       92.46       91.61       90.77       89.94       89.11       88.28       87.46       86.64       85.83    
        85.03       84.22       83.42       82.63       81.84       81.05       80.26       79.48       78.70       77.92    
        77.14       76.36       75.58       74.79       74.01       73.22       72.42       71.62       70.82       70.00    
   8  -1000.0       106.2       106.1       105.8       105.6       105.2       104.8       104.3       103.7       103.0    
        102.3       101.4       100.6       99.61       98.63       97.62       96.67       95.76       94.88       94.03    
        93.18       92.34       91.51       90.68       89.85       89.02       88.20       87.38       86.57       85.76    
        84.95       84.15       83.36       82.56       81.77       80.99       80.20       79.42       78.64       77.87    
        77.09       76.32       75.54       74.76       73.98       73.20       72.41       71.61       70.81       70.00    
   9  -1000.0       106.1       106.0       105.8       105.5       105.2       104.7       104.2       103.6       102.9    
        102.1       101.2       100.3       99.31       98.30       97.30       96.38       95.52       94.68       93.85    
        93.03       92.21       91.39       90.57       89.75       88.92       88.11       87.29       86.48       85.67    
        84.87       84.07       83.28       82.48       81.70       80.91       80.13       79.36       78.58       77.81    
        77.04       76.27       75.50       74.73       73.95       73.17       72.39       71.60       70.80       70.00    
  10  -1000.0       106.0       105.9       105.7       105.5       105.1       104.7       104.1       103.5       102.8    
        101.9       101.0       99.98       98.91       97.85       96.88       96.03       95.24       94.46       93.67    
        92.87       92.07       91.26       90.45       89.63       88.82       88.00       87.19       86.38       85.58    
        84.77       83.98       83.18       82.40       81.61       80.83       80.05       79.28       78.51       77.74    
        76.98       76.21       75.45       74.68       73.92       73.15       72.37       71.59       70.80       70.00    
  11  -1000.0       106.0       105.9       105.7       105.4       105.1       104.6       104.0       103.4       102.6    
        101.7       100.7       99.61       98.38       97.19       96.33       95.63       94.94       94.23       93.48    
        92.72       91.93       91.14       90.33       89.52       88.70       87.89       87.08       86.27       85.47    
        84.67       83.87       83.08       82.29       81.51       80.74       79.96       79.19       78.43       77.67    
        76.91       76.15       75.40       74.64       73.88       73.11       72.35       71.57       70.79       70.00    
  12  -1000.0       105.9       105.8       105.6       105.4       105.0       104.5       104.0       103.3       102.5    
        101.6       100.5       99.21       97.69       96.07       95.63       95.20       94.66       94.02       93.32    
        92.57       91.80       91.01       90.21       89.40       88.58       87.77       86.96       86.15       85.35    
        84.55       83.76       82.97       82.18       81.40       80.63       79.86       79.10       78.34       77.58    
        76.83       76.08       75.33       74.58       73.83       73.08       72.32       71.55       70.78       70.00    
  13  -1000.0       105.9       105.8       105.6       105.3       104.9       104.5       103.9       103.2       102.4    
        101.5       100.3       98.92       96.98       93.61       94.89       94.89       94.47       93.87       93.19    
        92.45       91.68       90.89       90.08       89.27       88.45       87.64       86.83       86.02       85.22    
        84.42       83.63       82.84       82.06       81.28       80.51       79.74       78.98       78.23       77.48    
        76.74       76.00       75.27       74.53       73.79       73.04       72.29       71.53       70.77       70.00    
  14  -1000.0       105.8       105.7       105.5       105.2       104.9       104.4       103.8       103.2       102.4    
        101.4       100.3       99.04       97.51       95.88       95.43       95.00       94.45       93.81       93.10    
        92.35       91.57       90.77       89.96       89.14       88.32       87.50       86.69       85.88       85.08    
        84.28       83.49       82.70       81.92       81.15       80.38       79.62       78.86       78.11       77.38    
        76.64       75.92       75.19       74.46       73.73       73.00       72.26       71.52       70.76       70.00    
  15  -1000.0       105.7       105.6       105.4       105.2       104.8       104.3       103.8       103.1       102.3    
        101.4       100.4       99.26       98.01       96.81       95.94       95.23       94.53       93.81       93.05    
        92.27       91.47       90.66       89.84       89.01       88.18       87.35       86.54       85.73       84.93    
        84.13       83.34       82.56       81.77       81.00       80.23       79.47       78.72       77.98       77.25    
        76.53       75.82       75.11       74.40       73.68       72.96       72.23       71.50       70.75       70.00    
  16  -1000.0       105.6       105.6       105.4       105.1       104.7       104.3       103.7       103.1       102.3    
        101.5       100.5       99.47       98.36       97.28       96.30       95.43       94.62       93.83       93.02    
        92.21       91.38       90.55       89.71       88.87       88.03       87.20       86.38       85.57       84.77    
        83.97       83.18       82.39       81.61       80.84       80.07       79.31       78.56       77.83       77.11    
        76.41       75.71       75.02       74.32       73.62       72.92       72.20       71.48       70.74       70.00    
  17  -1000.0       105.6       105.5       105.3       105.0       104.7       104.2       103.7       103.0       102.3    
        101.5       100.6       99.61       98.59       97.55       96.52       95.58       94.70       93.84       92.99    
        92.14       91.28       90.43       89.57       88.72       87.87       87.03       86.21       85.40       84.59    
        83.80       83.01       82.22       81.44       80.67       79.90       79.13       78.39       77.66       76.96    
        76.27       75.60       74.93       74.25       73.57       72.88       72.17       71.46       70.73       70.00    
  18  -1000.0       105.5       105.4       105.2       105.0       104.6       104.2       103.6       103.0       102.3    
        101.5       100.6       99.69       98.71       97.69       96.64       95.66       94.74       93.84       92.95    
        92.06       91.18       90.30       89.42       88.55       87.70       86.85       86.03       85.21       84.41    
        83.61       82.82       82.04       81.26       80.48       79.70       78.94       78.18       77.46       76.78    
        76.12       75.48       74.83       74.18       73.52       72.84       72.15       71.44       70.73       70.00    
  19  -1000.0       105.4       105.3       105.1       104.9       104.5       104.1       103.5       102.9       102.2    
        101.5       100.6       99.71       98.75       97.73       96.68       95.69       94.74       93.82       92.90    
        91.98       91.05       90.15       89.25       88.37       87.51       86.66       85.83       85.01       84.21    
        83.42       82.63       81.85       81.07       80.29       79.50       78.71       77.94       77.22       76.56    
        75.95       75.35       74.74       74.12       73.47       72.81       72.13       71.44       70.72       70.00    
  20  -1000.0       105.3       105.2       105.0       104.8       104.4       104.0       103.4       102.8       102.2    
        101.4       100.6       99.67       98.72       97.71       96.65       95.65       94.71       93.80       92.86    
        91.87       90.90       89.97       89.06       88.17       87.30       86.45       85.62       84.80       84.00    
        83.22       82.43       81.66       80.88       80.09       79.29       78.47       77.66       76.89       76.30    
        75.76       75.22       74.66       74.06       73.44       72.80       72.13       71.43       70.72       70.00    
  21  -1000.0       105.2       105.1       104.9       104.6       104.3       103.8       103.3       102.7       102.0    
        101.3       100.5       99.57       98.62       97.61       96.55       95.55       94.62       93.80       92.84    
        91.73       90.71       89.75       88.83       87.94       87.07       86.22       85.39       84.58       83.79    
        83.01       82.23       81.46       80.69       79.90       79.09       78.23       77.31       76.38       75.98    
        75.58       75.12       74.60       74.04       73.44       72.80       72.14       71.45       70.73       70.00    
  22  -1000.0       105.1       105.0       104.8       104.5       104.1       103.7       103.2       102.6       101.9    
        101.1       100.3       99.41       98.46       97.45       96.37       95.36       94.42       93.58       92.60    
        91.48       90.45       89.49       88.56       87.67       86.81       85.96       85.14       84.34       83.55    
        82.79       82.03       81.27       80.51       79.73       78.92       78.03       76.96       75.33       75.67    
        75.46       75.07       74.58       74.04       73.46       72.83       72.17       71.47       70.75       70.00    
  23  -1000.0       105.0       104.9       104.7       104.4       104.0       103.5       103.0       102.4       101.7    
        100.9       100.1       99.20       98.24       97.22       96.13       95.09       94.10       93.15       92.15    
        91.12       90.12       89.17       88.25       87.38       86.54       85.69       84.87       84.08       83.31    
        82.56       81.82       81.09       80.35       79.60       78.83       78.02       77.14       76.26       75.90    
        75.54       75.11       74.63       74.09       73.52       72.90       72.23       71.53       70.78       70.00    
  24  -1000.0       104.8       104.7       104.5       104.2       103.8       103.3       102.8       102.1       101.4    
        100.7       99.84       98.94       97.98       96.94       95.84       94.77       93.74       92.74       91.73    
        90.73       89.74       88.79       87.89       87.05       86.27       85.40       84.58       83.80       83.05    
        82.33       81.62       80.91       80.21       79.51       78.79       78.06       77.33       76.65       76.14    
        75.69       75.22       74.72       74.19       73.62       73.00       72.34       71.62       70.84       70.00    
  25  -1000.0       104.8       104.6       104.4       104.0       103.6       103.1       102.5       101.9       101.2    
        100.4       99.54       98.63       97.65       96.61       95.49       94.41       93.35       92.32       91.30    
        90.30       89.31       88.37       87.47       86.67       86.08       85.08       84.25       83.49       82.77    
        82.08       81.41       80.74       80.08       79.43       78.77       78.12       77.48       76.88       76.35    
        75.85       75.36       74.85       74.32       73.76       73.16       72.50       71.77       70.96       70.00    
  26  -1000.0       105.1       105.0       104.8       104.5       104.1       103.7       103.1       102.5       101.8    
        101.0       100.2       99.30       98.32       97.28       96.15       95.06       93.99       92.95       91.93    
        90.93       89.95       89.01       88.11       87.26       86.47       85.60       84.77       83.98       83.23    
        82.50       81.80       81.10       80.42       79.74       79.07       78.41       77.77       77.15       76.57    
        76.01       75.46       74.89       74.32       73.71       73.07       72.39       71.65       70.86       70.00    
  27  -1000.0       105.6       105.5       105.3       105.0       104.6       104.2       103.6       103.0       102.4    
        101.6       100.8       99.91       98.95       97.90       96.77       95.67       94.60       93.55       92.53    
        91.53       90.55       89.60       88.68       87.80       86.94       86.09       85.25       84.45       83.67    
        82.91       82.18       81.46       80.75       80.06       79.37       78.70       78.04       77.40       76.78    
        76.17       75.57       74.96       74.34       73.70       73.03       72.33       71.59       70.81       70.00    
  28  -1000.0       106.0       105.9       105.7       105.4       105.1       104.7       104.1       103.6       102.9    
        102.2       101.4       100.5       99.52       98.48       97.35       96.25       95.18       94.12       93.10    
        92.09       91.11       90.15       89.21       88.31       87.42       86.55       85.70       84.88       84.08    
        83.31       82.55       81.81       81.08       80.37       79.66       78.97       78.29       77.62       76.97    
        76.33       75.69       75.05       74.39       73.72       73.03       72.31       71.56       70.79       70.00    
  29  -1000.0       106.4       106.3       106.1       105.9       105.5       105.1       104.6       104.1       103.4    
        102.7       101.9       101.0       100.1       99.02       97.89       96.79       95.71       94.66       93.63    
        92.62       91.63       90.66       89.71       88.79       87.88       87.00       86.14       85.30       84.48    
        83.69       82.91       82.15       81.40       80.67       79.94       79.23       78.53       77.84       77.17    
        76.49       75.82       75.15       74.46       73.76       73.05       72.32       71.56       70.79       70.00    
  30  -1000.0       106.7       106.6       106.5       106.2       105.9       105.5       105.1       104.5       103.9    
        103.2       102.4       101.5       100.5       99.51       98.39       97.29       96.21       95.15       94.12    
        93.10       92.11       91.13       90.17       89.23       88.31       87.41       86.54       85.69       84.85    
        84.04       83.25       82.47       81.70       80.95       80.21       79.48       78.76       78.05       77.35    
        76.65       75.95       75.25       74.54       73.82       73.08       72.34       71.57       70.79       70.00    
  31  -1000.0       107.1       107.0       106.9       106.6       106.3       105.9       105.5       104.9       104.3    
        103.6       102.8       101.9       101.0       99.96       98.85       97.75       96.67       95.61       94.57    
        93.55       92.55       91.57       90.60       89.65       88.72       87.81       86.92       86.05       85.20    
        84.38       83.57       82.77       81.99       81.22       80.46       79.72       78.98       78.25       77.52    
        76.80       76.08       75.35       74.62       73.88       73.13       72.36       71.59       70.80       70.00    
  32  -1000.0       107.4       107.3       107.2       107.0       106.7       106.3       105.8       105.3       104.7    
        104.0       103.2       102.3       101.4       100.4       99.26       98.17       97.09       96.03       94.99    
        93.97       92.96       91.97       91.00       90.04       89.09       88.17       87.27       86.39       85.53    
        84.69       83.87       83.06       82.26       81.48       80.71       79.94       79.19       78.44       77.69    
        76.95       76.20       75.46       74.70       73.94       73.18       72.40       71.61       70.81       70.00    
  33  -1000.0       107.7       107.6       107.5       107.3       107.0       106.6       106.2       105.6       105.0    
        104.3       103.6       102.7       101.8       100.8       99.64       98.55       97.48       96.42       95.38    
        94.35       93.34       92.35       91.36       90.39       89.44       88.51       87.60       86.71       85.84    
        84.99       84.15       83.33       82.52       81.72       80.94       80.16       79.38       78.62       77.85    
        77.09       76.32       75.56       74.79       74.01       73.23       72.44       71.63       70.82       70.00    
  34  -1000.0       108.0       107.9       107.8       107.6       107.3       106.9       106.5       105.9       105.3    
        104.7       103.9       103.0       102.1       101.1       99.99       98.90       97.83       96.77       95.73    
        94.70       93.69       92.69       91.70       90.73       89.77       88.83       87.91       87.01       86.13    
        85.27       84.42       83.59       82.77       81.95       81.15       80.36       79.57       78.78       78.00    
        77.22       76.44       75.66       74.87       74.08       73.28       72.48       71.66       70.83       70.00    
  35  -1000.0       108.3       108.2       108.1       107.8       107.5       107.2       106.7       106.2       105.6    
        104.9       104.2       103.3       102.4       101.4       100.3       99.22       98.15       97.09       96.05    
        95.02       94.01       93.00       92.01       91.03       90.07       89.12       88.20       87.29       86.40    
        85.53       84.67       83.83       82.99       82.17       81.35       80.55       79.74       78.94       78.14    
        77.35       76.55       75.76       74.95       74.15       73.33       72.51       71.69       70.85       70.00    
  36  -1000.0       108.5       108.4       108.3       108.1       107.8       107.4       107.0       106.5       105.9    
        105.2       104.5       103.6       102.7       101.7       100.6       99.51       98.44       97.39       96.34    
        95.31       94.30       93.29       92.30       91.31       90.34       89.39       88.46       87.55       86.65    
        85.77       84.91       84.05       83.21       82.37       81.54       80.72       79.90       79.09       78.28    
        77.47       76.66       75.85       75.03       74.21       73.39       72.55       71.71       70.86       70.00    
  37  -1000.0       108.7       108.6       108.5       108.3       108.0       107.6       107.2       106.7       106.1    
        105.4       104.7       103.9       102.9       101.9       100.8       99.77       98.70       97.65       96.61    
        95.58       94.56       93.56       92.56       91.57       90.60       89.64       88.71       87.79       86.89    
        86.00       85.13       84.26       83.41       82.56       81.72       80.88       80.06       79.23       78.41    
        77.58       76.76       75.93       75.11       74.27       73.43       72.59       71.74       70.87       70.00    
  38  -1000.0       108.9       108.8       108.7       108.5       108.2       107.8       107.4       106.9       106.3    
        105.6       104.9       104.1       103.2       102.2       101.1       100.0       98.94       97.89       96.85    
        95.82       94.80       93.80       92.80       91.81       90.83       89.87       88.93       88.01       87.11    
        86.21       85.33       84.45       83.59       82.73       81.88       81.04       80.20       79.36       78.52    
        77.69       76.85       76.02       75.18       74.33       73.48       72.62       71.76       70.88       70.00    
  39  -1000.0       109.1       109.0       108.9       108.6       108.4       108.0       107.6       107.1       106.5    
        105.8       105.1       104.3       103.4       102.4       101.3       100.2       99.15       98.10       97.06    
        96.04       95.02       94.01       93.01       92.02       91.04       90.09       89.14       88.22       87.30    
        86.40       85.51       84.63       83.75       82.89       82.03       81.17       80.32       79.48       78.63    
        77.79       76.94       76.09       75.24       74.39       73.52       72.66       71.78       70.90       70.00    
  40  -1000.0       109.2       109.1       109.0       108.8       108.5       108.1       107.7       107.2       106.6    
        106.0       105.2       104.4       103.5       102.5       101.5       100.4       99.34       98.29       97.26    
        96.23       95.21       94.21       93.21       92.22       91.24       90.28       89.33       88.40       87.48    
        86.58       85.68       84.79       83.91       83.03       82.16       81.30       80.44       79.58       78.73    
        77.87       77.02       76.16       75.30       74.43       73.56       72.69       71.80       70.91       70.00    
  41  -1000.0       109.3       109.3       109.1       108.9       108.6       108.3       107.8       107.3       106.8    
        106.1       105.4       104.6       103.7       102.7       101.6       100.6       99.50       98.46       97.43    
        96.40       95.39       94.38       93.38       92.39       91.41       90.45       89.50       88.57       87.64    
        86.73       85.83       84.93       84.04       83.16       82.28       81.41       80.55       79.68       78.82    
        77.95       77.09       76.22       75.35       74.48       73.60       72.71       71.82       70.91       70.00    
  42  -1000.0       109.5       109.4       109.2       109.0       108.7       108.4       107.9       107.4       106.9    
        106.2       105.5       104.7       103.8       102.8       101.8       100.7       99.64       98.60       97.57    
        96.55       95.54       94.53       93.53       92.54       91.57       90.60       89.65       88.71       87.79    
        86.87       85.96       85.06       84.16       83.27       82.39       81.51       80.64       79.77       78.90    
        78.03       77.15       76.28       75.40       74.52       73.63       72.74       71.84       70.92       70.00    
  43  -1000.0       109.6       109.5       109.3       109.1       108.8       108.4       108.0       107.5       107.0    
        106.3       105.6       104.8       103.9       102.9       101.9       100.8       99.77       98.73       97.70    
        96.68       95.66       94.66       93.67       92.68       91.70       90.74       89.78       88.84       87.91    
        86.99       86.07       85.17       84.27       83.37       82.49       81.60       80.72       79.84       78.97    
        78.09       77.21       76.33       75.44       74.56       73.66       72.76       71.85       70.93       70.00    
  44  -1000.0     -1000.0       109.6       109.4       109.1       108.8       108.5       108.1       107.6       107.0    
        106.4       105.7       104.9       104.0       103.0       102.0       100.9       99.87       98.83       97.81    
        96.79       95.77       94.77       93.78       92.79       91.81       90.85       89.89       88.95       88.02    
        87.09       86.17       85.26       84.36       83.46       82.57       81.68       80.79       79.91       79.02    
        78.14       77.26       76.37       75.48       74.59       73.69       72.78       71.86       70.94       70.00    
  45  -1000.0     -1000.0     -1000.0       109.5       109.2       108.8       108.5       108.1       107.6       107.1    
        106.4       105.7       104.9       104.1       103.1       102.0       101.0       99.95       98.92       97.89    
        96.88       95.87       94.86       93.87       92.89       91.91       90.94       89.99       89.04       88.10    
        87.17       86.25       85.34       84.43       83.53       82.63       81.74       80.85       79.96       79.07    
        78.19       77.30       76.41       75.51       74.61       73.71       72.79       71.87       70.94       70.00    
  46  -1000.0     -1000.0     -1000.0     -1000.0       109.2       108.9       108.5       108.1       107.6       107.1    
        106.5       105.8       105.0       104.1       103.1       102.1       101.1       100.0       98.99       97.96    
        96.95       95.94       94.94       93.94       92.96       91.98       91.02       90.06       89.11       88.17    
        87.24       86.32       85.40       84.49       83.59       82.69       81.79       80.90       80.00       79.11    
        78.22       77.33       76.43       75.54       74.63       73.72       72.81       71.88       70.95       70.00    
  47  -1000.0     -1000.0     -1000.0     -1000.0     -1000.0       108.9       108.5       108.1       107.6       107.1    
        106.5       105.8       105.0       104.1       103.2       102.1       101.1       100.1       99.04       98.02    
        97.00       95.99       94.99       94.00       93.01       92.04       91.07       90.11       89.17       88.23    
        87.29       86.37       85.45       84.54       83.63       82.73       81.83       80.93       80.04       79.14    
        78.25       77.35       76.46       75.55       74.65       73.74       72.82       71.89       70.95       70.00    
  48  -1000.0     -1000.0     -1000.0     -1000.0     -1000.0     -1000.0       108.6       108.1       107.6       107.0    
        106.5       105.8       105.0       104.2       103.2       102.2       101.1       100.1       99.07       98.05    
        97.04       96.03       95.03       94.04       93.05       92.08       91.11       90.15       89.20       88.26    
        87.33       86.40       85.48       84.57       83.66       82.75       81.85       80.96       80.06       79.16    
        78.27       77.37       76.47       75.57       74.66       73.74       72.82       71.89       70.95       70.00    
  49  -1000.0     -1000.0     -1000.0     -1000.0     -1000.0     -1000.0     -1000.0       108.1       107.6       107.0    
        106.4       105.8       105.0       104.2       103.2       102.2       101.1       100.1       99.09       98.07    
        97.05       96.05       95.05       94.05       93.07       92.09       91.13       90.17       89.22       88.28    
        87.34       86.42       85.50       84.58       83.67       82.77       81.87       80.97       80.07       79.17    
        78.28       77.38       76.48       75.57       74.66       73.75       72.83       71.89       70.95       70.00    
  50  -1000.0     -1000.0     -1000.0     -1000.0     -1000.0     -1000.0     -1000.0     -1000.0     -1000.0     -1000.0    
      -1000.0     -1000.0     -1000.0     -1000.0     -1000.0     -1000.0     -1000.0     -1000.0     -1000.0     -1000.0    
      -1000.0     -1000.0     -1000.0     -1000.0     -1000.0     -1000.0     -1000.0     -1000.0     -1000.0     -1000.0    
      -1000.0     -1000.0     -1000.0     -1000.0     -1000.0     -1000.0     -1000.0     -1000.0     -1000.0     -1000.0    
      -1000.0     -1000.0     -1000.0     -1000.0     -1000.0     -1000.0     -1000.0     -1000.0     -1000.0       70.00    
1
              HEAD IN LAYER   3 AT END OF TIME STEP   1 IN STRESS PERIOD    1
  ---------------------------------------------------------------------------

            1           2           3           4           5           6           7           8           9          10
           11          12          13          14          15          16          17          18          19          20
           21          22          23          24          25          26          27          28          29          30
           31          32          33          34          35          36          37          38          39          40
[...]
        91.12       90.12       89.17       88.25       87.38       86.54       85.69       84.87       84.08       83.31    
        82.56       81.82       81.09       80.35       79.60       78.83       78.02       77.14       76.26       75.90    
        75.54       75.11       74.63       74.09       73.52       72.90       72.23       71.53       70.78       70.00    
  24  -1000.0       104.8       104.7       104.5       104.2       103.8       103.3       102.8       102.1       101.4    
        100.7       99.84       98.94       97.98       96.94       95.84       94.77       93.74       92.74       91.73    
        90.73       89.74       88.79       87.89       87.05       86.27       85.40       84.58       83.80       83.05    
        82.33       81.62       80.91       80.21       79.51       78.79       78.06       77.33       76.65       76.14    
        75.69       75.22       74.72       74.19       73.62       73.00       72.34       71.62       70.84       70.00    
  25  -1000.0       104.8       104.6       104.4       104.0       103.6       103.1       102.5       101.9       101.2    
        100.4       99.54       98.63       97.65       96.61       95.49       94.41       93.36       92.32       91.30    
        90.30       89.31       88.37       87.47       86.67       86.08       85.08       84.25       83.49       82.77    
        82.08       81.41       80.74       80.08       79.43       78.77       78.12       77.48       76.88       76.35    
        75.85       75.36       74.85       74.32       73.76       73.16       72.50       71.77       70.96       70.00    
  26  -1000.0       105.1       105.0       104.8       104.5       104.1       103.7       103.1       102.5       101.8    
        101.0       100.2       99.30       98.32       97.28       96.15       95.06       93.99       92.95       91.93    
        90.93       89.95       89.01       88.11       87.26       86.47       85.60       84.77       83.98       83.23    
        82.50       81.80       81.10       80.42       79.74       79.07       78.41       77.77       77.15       76.57    
        76.01       75.46       74.89       74.32       73.71       73.07       72.39       71.65       70.86       70.00    
  27  -1000.0       105.6       105.5       105.3       105.0       104.6       104.2       103.6       103.0       102.4    
        101.6       100.8       99.91       98.95       97.90       96.77       95.67       94.60       93.55       92.53    
        91.53       90.55       89.60       88.68       87.80       86.94       86.09       85.25       84.45       83.67    
        82.91       82.18       81.46       80.75       80.06       79.37       78.70       78.04       77.40       76.78    
        76.17       75.57       74.96       74.34       73.70       73.03       72.33       71.59       70.81       70.00    
  28  -1000.0       106.0       105.9       105.7       105.4       105.1       104.7       104.1       103.6       102.9    
        102.2       101.4       100.5       99.52       98.48       97.35       96.25       95.18       94.12       93.10    
        92.09       91.11       90.15       89.21       88.31       87.42       86.55       85.70       84.88       84.08    
        83.31       82.55       81.81       81.08       80.37       79.66       78.97       78.29       77.62       76.97    
        76.33       75.69       75.05       74.39       73.72       73.03       72.31       71.56       70.79       70.00    
  29  -1000.0       106.4       106.3       106.1       105.9       105.5       105.1       104.6       104.1       103.4    
        102.7       101.9       101.0       100.1       99.02       97.89       96.79       95.71       94.66       93.63    
        92.62       91.63       90.66       89.71       88.79       87.88       87.00       86.14       85.30       84.48    
        83.69       82.91       82.15       81.40       80.67       79.94       79.23       78.53       77.84       77.17    
        76.49       75.82       75.15       74.46       73.76       73.05       72.32       71.56       70.79       70.00    
  30  -1000.0       106.7       106.6       106.5       106.2       105.9       105.5       105.1       104.5       103.9    
        103.2       102.4       101.5       100.5       99.51       98.39       97.29       96.21       95.15       94.12    
        93.10       92.11       91.13       90.17       89.23       88.31       87.41       86.54       85.69       84.85    
        84.04       83.25       82.47       81.70       80.95       80.21       79.48       78.76       78.05       77.35    
        76.65       75.95       75.25       74.54       73.82       73.08       72.34       71.57       70.79       70.00    
  31  -1000.0       107.1       107.0       106.9       106.6       106.3       105.9       105.5       104.9       104.3    
        103.6       102.8       101.9       101.0       99.96       98.85       97.75       96.67       95.61       94.57    
        93.55       92.55       91.57       90.60       89.65       88.72       87.81       86.92       86.05       85.20    
        84.38       83.57       82.77       81.99       81.22       80.46       79.72       78.98       78.25       77.52    
        76.80       76.08       75.35       74.62       73.88       73.13       72.36       71.59       70.80       70.00    
  32  -1000.0       107.4       107.3       107.2       107.0       106.7       106.3       105.8       105.3       104.7    
        104.0       103.2       102.3       101.4       100.4       99.26       98.17       97.09       96.03       94.99    
        93.97       92.96       91.97       91.00       90.04       89.09       88.17       87.27       86.39       85.53    
        84.69       83.87       83.06       82.26       81.48       80.71       79.94       79.19       78.44       77.69    
        76.95       76.20       75.46       74.70       73.94       73.18       72.40       71.61       70.81       70.00    
  33  -1000.0       107.7       107.6       107.5       107.3       107.0       106.6       106.2       105.6       105.0    
        104.3       103.6       102.7       101.8       100.8       99.64       98.55       97.48       96.42       95.38    
        94.35       93.34       92.35       91.36       90.39       89.44       88.51       87.60       86.71       85.84    
        84.99       84.15       83.33       82.52       81.72       80.94       80.16       79.38       78.62       77.85    
        77.09       76.32       75.56       74.79       74.01       73.23       72.44       71.63       70.82       70.00    
  34  -1000.0       108.0       107.9       107.8       107.6       107.3       106.9       106.5       105.9       105.3    
        104.7       103.9       103.0       102.1       101.1       99.99       98.90       97.83       96.77       95.73    
        94.70       93.69       92.69       91.70       90.73       89.77       88.83       87.91       87.01       86.13    
        85.27       84.42       83.59       82.77       81.95       81.15       80.36       79.57       78.78       78.00    
        77.22       76.44       75.66       74.87       74.08       73.28       72.48       71.66       70.83       70.00    
  35  -1000.0       108.3       108.2       108.1       107.8       107.5       107.2       106.7       106.2       105.6    
        104.9       104.2       103.3       102.4       101.4       100.3       99.22       98.15       97.09       96.05    
        95.02       94.01       93.00       92.01       91.03       90.07       89.12       88.20       87.29       86.40    
        85.53       84.67       83.83       82.99       82.17       81.35       80.55       79.74       78.94       78.14    
        77.35       76.55       75.76       74.95       74.15       73.33       72.51       71.69       70.85       70.00    
  36  -1000.0       108.5       108.4       108.3       108.1       107.8       107.4       107.0       106.5       105.9    
        105.2       104.5       103.6       102.7       101.7       100.6       99.51       98.44       97.39       96.34    
        95.31       94.30       93.29       92.30       91.31       90.34       89.39       88.46       87.55       86.65    
        85.77       84.91       84.05       83.21       82.37       81.54       80.72       79.90       79.09       78.28    
        77.47       76.66       75.85       75.03       74.21       73.39       72.55       71.71       70.86       70.00    
  37  -1000.0       108.7       108.6       108.5       108.3       108.0       107.6       107.2       106.7       106.1    
        105.4       104.7       103.9       102.9       101.9       100.8       99.77       98.70       97.65       96.61    
        95.58       94.56       93.56       92.56       91.57       90.60       89.64       88.71       87.79       86.89    
        86.00       85.13       84.26       83.41       82.56       81.72       80.88       80.06       79.23       78.41    
        77.58       76.76       75.93       75.11       74.27       73.43       72.59       71.74       70.87       70.00    
  38  -1000.0       108.9       108.8       108.7       108.5       108.2       107.8       107.4       106.9       106.3    
        105.6       104.9       104.1       103.2       102.2       101.1       100.0       98.94       97.89       96.85    
        95.82       94.80       93.80       92.80       91.81       90.83       89.87       88.93       88.01       87.11    
        86.21       85.33       84.45       83.59       82.73       81.88       81.04       80.20       79.36       78.52    
        77.69       76.85       76.02       75.18       74.33       73.48       72.62       71.76       70.88       70.00    
  39  -1000.0       109.1       109.0       108.9       108.6       108.4       108.0       107.6       107.1       106.5    
        105.8       105.1       104.3       103.4       102.4       101.3       100.2       99.15       98.10       97.06    
        96.04       95.02       94.01       93.01       92.02       91.04       90.09       89.14       88.22       87.30    
        86.40       85.51       84.63       83.75       82.89       82.03       81.17       80.32       79.48       78.63    
        77.79       76.94       76.09       75.24       74.39       73.52       72.66       71.78       70.90       70.00    
  40  -1000.0       109.2       109.1       109.0       108.8       108.5       108.1       107.7       107.2       106.6    
        106.0       105.2       104.4       103.5       102.5       101.5       100.4       99.34       98.29       97.26    
        96.23       95.21       94.21       93.21       92.22       91.24       90.28       89.33       88.40       87.48    
        86.58       85.68       84.79       83.91       83.03       82.16       81.30       80.44       79.58       78.73    
        77.87       77.02       76.16       75.30       74.43       73.56       72.69       71.80       70.91       70.00    
  41  -1000.0       109.3       109.3       109.1       108.9       108.6       108.3       107.8       107.3       106.8    
        106.1       105.4       104.6       103.7       102.7       101.6       100.6       99.50       98.46       97.43    
        96.40       95.39       94.38       93.38       92.39       91.41       90.45       89.50       88.57       87.64    
        86.73       85.83       84.93       84.04       83.16       82.28       81.41       80.55       79.68       78.82    
        77.95       77.09       76.22       75.35       74.48       73.60       72.71       71.82       70.91       70.00    
  42  -1000.0     -1000.0       109.4       109.2       109.0       108.7       108.4       107.9       107.4       106.9    
        106.2       105.5       104.7       103.8       102.8       101.8       100.7       99.64       98.60       97.57    
        96.55       95.54       94.53       93.53       92.54       91.57       90.60       89.65       88.71       87.79    
        86.87       85.96       85.06       84.16       83.27       82.39       81.51       80.64       79.77       78.90    
        78.03       77.15       76.28       75.40       74.52       73.63       72.74       71.84       70.92       70.00    
  43  -1000.0     -1000.0     -1000.0       109.3       109.1       108.8       108.4       108.0       107.5       107.0    
        106.3       105.6       104.8       103.9       102.9       101.9       100.8       99.77       98.73       97.70    
        96.68       95.66       94.66       93.67       92.68       91.70       90.74       89.78       88.84       87.91    
        86.99       86.07       85.17       84.27       83.37       82.49       81.60       80.72       79.84       78.97    
        78.09       77.21       76.33       75.44       74.56       73.66       72.76       71.85       70.93       70.00    
  44  -1000.0     -1000.0     -1000.0     -1000.0       109.1       108.8       108.5       108.1       107.6       107.0    
        106.4       105.7       104.9       104.0       103.0       102.0       100.9       99.87       98.83       97.81    
        96.79       95.77       94.77       93.78       92.79       91.81       90.85       89.89       88.95       88.02    
        87.09       86.17       85.26       84.36       83.46       82.57       81.68       80.79       79.91       79.02    
        78.14       77.26       76.37       75.48       74.59       73.69       72.78       71.86       70.94       70.00    
  45  -1000.0     -1000.0     -1000.0     -1000.0     -1000.0       108.8       108.5       108.1       107.6       107.1    
        106.4       105.7       104.9       104.1       103.1       102.0       101.0       99.95       98.92       97.89    
        96.88       95.87       94.86       93.87       92.89       91.91       90.94       89.99       89.04       88.10    
        87.17       86.25       85.34       84.43       83.53       82.63       81.74       80.85       79.96       79.07    
        78.19       77.30       76.41       75.51       74.61       73.71       72.79       71.87       70.94       70.00    
  46  -1000.0     -1000.0     -1000.0     -1000.0     -1000.0     -1000.0       108.5       108.1       107.6       107.1    
        106.5       105.8       105.0       104.1       103.1       102.1       101.1       100.0       98.99       97.96    
        96.95       95.94       94.94       93.94       92.96       91.98       91.02       90.06       89.11       88.17    
        87.24       86.32       85.40       84.49       83.59       82.69       81.79       80.90       80.00       79.11    
        78.22       77.33       76.43       75.54       74.63       73.72       72.81       71.88       70.95       70.00    
  47  -1000.0     -1000.0     -1000.0     -1000.0     -1000.0     -1000.0     -1000.0       108.1       107.6       107.1    
        106.5       105.8       105.0       104.1       103.2       102.1       101.1       100.1       99.04       98.02    
        97.00       95.99       94.99       94.00       93.01       92.04       91.07       90.11       89.17       88.23    
        87.29       86.37       85.45       84.54       83.63       82.73       81.83       80.93       80.04       79.14    
        78.25       77.35       76.46       75.55       74.65       73.74       72.82       71.89       70.95       70.00    
  48  -1000.0     -1000.0     -1000.0     -1000.0     -1000.0     -1000.0     -1000.0     -1000.0       107.6       107.0    
        106.5       105.8       105.0       104.2       103.2       102.2       101.1       100.1       99.07       98.05    
        97.04       96.03       95.03       94.04       93.05       92.08       91.11       90.15       89.20       88.26    
        87.33       86.40       85.48       84.57       83.66       82.75       81.85       80.96       80.06       79.16    
        78.27       77.37       76.47       75.57       74.66       73.74       72.82       71.89       70.95       70.00    
  49  -1000.0     -1000.0     -1000.0     -1000.0     -1000.0     -1000.0     -1000.0     -1000.0     -1000.0       107.0    
        106.4       105.8       105.0       104.2       103.2       102.2       101.1       100.1       99.09       98.07    
        97.05       96.05       95.05       94.05       93.07       92.09       91.13       90.17       89.22       88.28    
        87.34       86.42       85.50       84.58       83.67       82.77       81.87       80.97       80.07       79.17    
        78.28       77.38       76.48       75.57       74.66       73.75       72.83       71.89       70.95       70.00    
  50  -1000.0     -1000.0     -1000.0     -1000.0     -1000.0     -1000.0     -1000.0     -1000.0     -1000.0     -1000.0    
      -1000.0     -1000.0     -1000.0     -1000.0     -1000.0     -1000.0     -1000.0     -1000.0     -1000.0     -1000.0    
      -1000.0     -1000.0     -1000.0     -1000.0     -1000.0     -1000.0     -1000.0     -1000.0     -1000.0     -1000.0    
      -1000.0     -1000.0     -1000.0     -1000.0     -1000.0     -1000.0     -1000.0     -1000.0     -1000.0     -1000.0    
      -1000.0     -1000.0     -1000.0     -1000.0     -1000.0     -1000.0     -1000.0     -1000.0     -1000.0       70.00    

 HEAD WILL BE SAVED ON UNIT   51 AT END OF TIME STEP    1, STRESS PERIOD    1

 DRAWDOWN WILL BE SAVED ON UNIT   52 AT END OF TIME STEP    1, STRESS PERIOD    1
1
  VOLUMETRIC BUDGET FOR ENTIRE MODEL AT END OF TIME STEP    1, STRESS PERIOD   1
  ------------------------------------------------------------------------------

     CUMULATIVE VOLUMES      L**3       RATES FOR THIS TIME STEP      L**3/T
     ------------------                 ------------------------

           IN:                                      IN:
           ---                                      ---
             STORAGE =           0.0000               STORAGE =           0.0000
       CONSTANT HEAD =           0.0000         CONSTANT HEAD =           0.0000
               WELLS =         375.0000                 WELLS =         375.0000
       RIVER LEAKAGE =         705.0522         RIVER LEAKAGE =         705.0522
                  ET =           0.0000                    ET =           0.0000
            RECHARGE =       33199.9961              RECHARGE =       33199.9961

            TOTAL IN =       34280.0469              TOTAL IN =       34280.0469

          OUT:                                     OUT:
          ----                                     ----
             STORAGE =           0.0000               STORAGE =           0.0000
       CONSTANT HEAD =       14062.3447         CONSTANT HEAD =       14062.3447
               WELLS =        6000.0000                 WELLS =        6000.0000
       RIVER LEAKAGE =       12917.5918         RIVER LEAKAGE =       12917.5918
                  ET =        1300.0962                    ET =        1300.0962
            RECHARGE =           0.0000              RECHARGE =           0.0000

           TOTAL OUT =       34280.0352             TOTAL OUT =       34280.0352

            IN - OUT =       1.1719E-02              IN - OUT =       1.1719E-02

 PERCENT DISCREPANCY =           0.00     PERCENT DISCREPANCY =           0.00






         TIME SUMMARY AT END OF TIME STEP    1 IN STRESS PERIOD    1
                    SECONDS     MINUTES      HOURS       DAYS        YEARS
                    -----------------------------------------------------------
   TIME STEP LENGTH  86400.      1440.0      24.000      1.0000     2.73785E-03
 STRESS PERIOD TIME  86400.      1440.0      24.000      1.0000     2.73785E-03
         TOTAL TIME  86400.      1440.0      24.000      1.0000     2.73785E-03
1

 Run end date and time (yyyy/mm/dd hh:mm:ss): 2026/02/25  3:34:11
 Elapsed run time: 17.988 Seconds

