                                  MODFLOW-2005     
      U.S. GEOLOGICAL SURVEY MODULAR FINITE-DIFFERENCE GROUND-WATER FLOW MODEL
                            VERSION 1.12.00 2/3/2017

 LIST FILE: static_ensemble_S2wel_3333113.list
                         UNIT    2

 OPENING static_ensemble_S2wel_3333113.dis
 FILE TYPE:DIS   UNIT   11   STATUS:OLD    
 FORMAT:FORMATTED              ACCESS:SEQUENTIAL          

 OPENING static_ensemble_S2wel_3333113.bas
 FILE TYPE:BAS6   UNIT   13   STATUS:OLD    
 FORMAT:FORMATTED              ACCESS:SEQUENTIAL          

 OPENING static_ensemble_S2wel_3333113.lpf
 FILE TYPE:LPF   UNIT   15   STATUS:OLD    
 FORMAT:FORMATTED              ACCESS:SEQUENTIAL          

 OPENING static_ensemble_S2wel_3333113.evt
 FILE TYPE:EVT   UNIT   22   STATUS:OLD    
 FORMAT:FORMATTED              ACCESS:SEQUENTIAL          

 OPENING static_ensemble_S2wel_3333113.rch
 FILE TYPE:RCH   UNIT   19   STATUS:OLD    
 FORMAT:FORMATTED              ACCESS:SEQUENTIAL          

 OPENING static_ensemble_S2wel_3333113.riv
 FILE TYPE:RIV   UNIT   18   STATUS:OLD    
 FORMAT:FORMATTED              ACCESS:SEQUENTIAL          

 OPENING static_ensemble_S2wel_3333113.wel
 FILE TYPE:WEL   UNIT   20   STATUS:OLD    
 FORMAT:FORMATTED              ACCESS:SEQUENTIAL          

 OPENING static_ensemble_S2wel_3333113.oc
 FILE TYPE:OC   UNIT   14   STATUS:OLD    
 FORMAT:FORMATTED              ACCESS:SEQUENTIAL          

 OPENING static_ensemble_S2wel_3333113.pcg
 FILE TYPE:PCG   UNIT   27   STATUS:OLD    
 FORMAT:FORMATTED              ACCESS:SEQUENTIAL          

 OPENING static_ensemble_S2wel_3333113.cbc
 FILE TYPE:DATA(BINARY)   UNIT   53   STATUS:REPLACE
 FORMAT:UNFORMATTED            ACCESS:STREAM              

 OPENING static_ensemble_S2wel_3333113.hds
 FILE TYPE:DATA(BINARY)   UNIT   51   STATUS:REPLACE
 FORMAT:UNFORMATTED            ACCESS:STREAM              

 OPENING static_ensemble_S2wel_3333113.ddn
 FILE TYPE:DATA(BINARY)   UNIT   52   STATUS:REPLACE
 FORMAT:UNFORMATTED            ACCESS:STREAM              

 BAS -- BASIC PACKAGE, VERSION 7, 5/2/2005 INPUT READ FROM UNIT   13
 
 MODFLOW was compiled using mixed precision
 Precision of REAL variables:           6
 Precision of DOUBLE PRECISION variables:          15

 DISCRETIZATION INPUT DATA READ FROM UNIT   11
 # DIS package for MODFLOW-2005 generated by Flopy 3.10.0
    3 LAYERS        50 ROWS        50 COLUMNS
    1 STRESS PERIOD(S) IN SIMULATION
 MODEL TIME UNIT IS DAYS
 MODEL LENGTH UNIT IS METERS
  Confining bed flag for each layer:
   0   0   0

                     DELR =   1000.00    

                     DELC =   1000.00    



           TOP ELEVATION OF LAYER 1
 READING ON UNIT   11 WITH FORMAT: (50E15.6)           



             MODEL LAYER BOTTOM EL. FOR LAYER   1
 READING ON UNIT   11 WITH FORMAT: (50E15.6)           



             MODEL LAYER BOTTOM EL. FOR LAYER   2
 READING ON UNIT   11 WITH FORMAT: (50E15.6)           



             MODEL LAYER BOTTOM EL. FOR LAYER   3
 READING ON UNIT   11 WITH FORMAT: (50E15.6)           


 STRESS PERIOD     LENGTH       TIME STEPS     MULTIPLIER FOR DELT    SS FLAG
 ----------------------------------------------------------------------------
        1         1.000000          1                    1.000         SS

 STEADY-STATE SIMULATION



 
 # BAS6 package for MODFLOW-2005 generated by Flopy 3.10.0                       
 THE FREE FORMAT OPTION HAS BEEN SELECTED



                     BOUNDARY ARRAY FOR LAYER   1
 READING ON UNIT   13 WITH FORMAT: (50I10)             



                     BOUNDARY ARRAY FOR LAYER   2
 READING ON UNIT   13 WITH FORMAT: (50I10)             



                     BOUNDARY ARRAY FOR LAYER   3
 READING ON UNIT   13 WITH FORMAT: (50I10)             

 AQUIFER HEAD WILL BE SET TO  -999.99     AT ALL NO-FLOW NODES (IBOUND=0).



                       INITIAL HEAD FOR LAYER   1
 READING ON UNIT   13 WITH FORMAT: (50E15.6)           



                       INITIAL HEAD FOR LAYER   2
 READING ON UNIT   13 WITH FORMAT: (50E15.6)           



                       INITIAL HEAD FOR LAYER   3
 READING ON UNIT   13 WITH FORMAT: (50E15.6)           
 # OC package for MODFLOW-2005 generated by Flopy 3.10.0

 OUTPUT CONTROL IS SPECIFIED ONLY AT TIME STEPS FOR WHICH OUTPUT IS DESIRED
 COMPACT CELL-BY-CELL BUDGET FILES WILL BE WRITTEN
 AUXILIARY DATA WILL BE SAVED IN CELL-BY-CELL BUDGET FILES
 HEAD PRINT FORMAT CODE IS   0    DRAWDOWN PRINT FORMAT CODE IS   0
 HEADS WILL BE SAVED ON UNIT   51    DRAWDOWNS WILL BE SAVED ON UNIT   52

 LPF -- LAYER-PROPERTY FLOW PACKAGE, VERSION 7, 5/2/2005
         INPUT READ FROM UNIT   15
 # LPF package for MODFLOW-2005 generated by Flopy 3.10.0
 CELL-BY-CELL FLOWS WILL BE SAVED ON UNIT   53
 HEAD AT CELLS THAT CONVERT TO DRY= -1.00000E+30
 No named parameters
 STORAGECOEFFICIENT OPTION:
 Read storage coefficient rather than specific storage

   LAYER FLAGS:
 LAYER       LAYTYP        LAYAVG         CHANI        LAYVKA        LAYWET
 ---------------------------------------------------------------------------
    1             1             0     1.000E+00             0             0
    2             1             0     1.000E+00             0             0
    3             1             0     1.000E+00             0             0

   INTERPRETATION OF LAYER FLAGS:
                        INTERBLOCK     HORIZONTAL    DATA IN
         LAYER TYPE   TRANSMISSIVITY   ANISOTROPY   ARRAY VKA   WETTABILITY
 LAYER      (LAYTYP)      (LAYAVG)       (CHANI)      (LAYVKA)      (LAYWET)
 ---------------------------------------------------------------------------
    1   CONVERTIBLE      HARMONIC     1.000E+00    VERTICAL K  NON-WETTABLE
    2   CONVERTIBLE      HARMONIC     1.000E+00    VERTICAL K  NON-WETTABLE
    3   CONVERTIBLE      HARMONIC     1.000E+00    VERTICAL K  NON-WETTABLE

 WETTING CAPABILITY IS NOT ACTIVE IN ANY LAYER



              HYD. COND. ALONG ROWS FOR LAYER   1
 READING ON UNIT   15 WITH FORMAT: (50E15.6)           



                VERTICAL HYD. COND. FOR LAYER   1
 READING ON UNIT   15 WITH FORMAT: (50E15.6)           



              HYD. COND. ALONG ROWS FOR LAYER   2
 READING ON UNIT   15 WITH FORMAT: (50E15.6)           



                VERTICAL HYD. COND. FOR LAYER   2
 READING ON UNIT   15 WITH FORMAT: (50E15.6)           



              HYD. COND. ALONG ROWS FOR LAYER   3
 READING ON UNIT   15 WITH FORMAT: (50E15.6)           



                VERTICAL HYD. COND. FOR LAYER   3
 READING ON UNIT   15 WITH FORMAT: (50E15.6)           

 WEL -- WELL PACKAGE, VERSION 7, 5/2/2005 INPUT READ FROM UNIT   20
 # WEL package for MODFLOW-2005 generated by Flopy 3.10.0
 No named parameters
 MAXIMUM OF      4 ACTIVE WELLS AT ONE TIME


     0 Well parameters

 RIV -- RIVER PACKAGE, VERSION 7, 5/2/2005 INPUT READ FROM UNIT   18
 # RIV package for MODFLOW-2005 generated by Flopy 3.10.0
 No named parameters
 MAXIMUM OF     49 ACTIVE RIVER REACHES AT ONE TIME
 CELL-BY-CELL FLOWS WILL BE SAVED ON UNIT   53


     0 River parameters

 EVT -- EVAPOTRANSPIRATION PACKAGE, VERSION 7, 5/2/2005
         INPUT READ FROM UNIT   22
 # EVT package for MODFLOW-2005 generated by Flopy 3.10.0
 No named parameters
 OPTION 3 -- EVAPOTRANSPIRATION FROM HIGHEST ACTIVE NODE IN EACH VERTICAL COLUMN
 CELL-BY-CELL FLOWS WILL BE SAVED ON UNIT   53


     0 Evapotranspiration parameters

 RCH -- RECHARGE PACKAGE, VERSION 7, 5/2/2005 INPUT READ FROM UNIT   19
 # RCH package for MODFLOW-2005 generated by Flopy 3.10.0
 No named parameters
 OPTION 3 -- RECHARGE TO HIGHEST ACTIVE NODE IN EACH VERTICAL COLUMN
 CELL-BY-CELL FLOWS WILL BE SAVED ON UNIT   53


     0 Recharge parameters

 PCG -- CONJUGATE-GRADIENT SOLUTION PACKAGE, VERSION 7, 5/2/2005
 # PCG package for MODFLOW-2005 generated by Flopy 3.10.0
 MAXIMUM OF   5000 CALLS OF SOLUTION ROUTINE
 MAXIMUM OF    500 INTERNAL ITERATIONS PER CALL TO SOLUTION ROUTINE
 MATRIX PRECONDITIONING TYPE :    1



                                    SOLUTION BY THE CONJUGATE-GRADIENT METHOD
                                   -------------------------------------------
                    MAXIMUM NUMBER OF CALLS TO PCG ROUTINE =     5000
                        MAXIMUM ITERATIONS PER CALL TO PCG =      500
                               MATRIX PRECONDITIONING TYPE =        1
        RELAXATION FACTOR (ONLY USED WITH PRECOND. TYPE 1) =    0.97000E+00
 PARAMETER OF POLYNOMIAL PRECOND. = 2 (2) OR IS CALCULATED :        0
                         HEAD CHANGE CRITERION FOR CLOSURE =    0.10000E-04
                     RESIDUAL CHANGE CRITERION FOR CLOSURE =    0.10000E-04
            PCG HEAD AND RESIDUAL CHANGE PRINTOUT INTERVAL =      999
     PRINTING FROM SOLVER IS LIMITED(1) OR SUPPRESSED (>1) =        3
                            STEADY-STATE DAMPING PARAMETER =    0.10000E-01
                               TRANSIENT DAMPING PARAMETER =    0.10000E-01
1
                            STRESS PERIOD NO.    1, LENGTH =   1.000000    
                            -----------------------------------------------

                              NUMBER OF TIME STEPS =     1

                               MULTIPLIER FOR DELT =     1.000

                            INITIAL TIME STEP SIZE =   1.000000    

 WELL NO.  LAYER   ROW   COL   STRESS RATE         
 --------------------------------------------------
      1      3     22     39      -1500.    
      2      1     13     15      -4500.    
      3      1     25     26       375.0    
      4      3     30     39      -1500.    

      4 WELLS

 REACH NO.  LAYER   ROW   COL     STAGE      CONDUCTANCE     BOTTOM EL.         
 -------------------------------------------------------------------------------
      1      1     25      2       100.5          0.1000E+06       98.00    
      2      1     25      3       99.50          0.1000E+06       97.00    
      3      1     25      4       98.50          0.1000E+06       96.00    
      4      1     25      5       97.50          0.1000E+06       95.00    
      5      1     25      6       96.50          0.1000E+06       94.00    
      6      1     25      7       95.50          0.1000E+06       93.00    
      7      1     25      8       94.50          0.1000E+06       92.00    
      8      1     25      9       93.50          0.1000E+06       91.00    
      9      1     25     10       92.50          0.1000E+06       90.00    
     10      1     25     11       91.50          0.1000E+06       89.00    
     11      1     25     12       90.50          0.1000E+06       88.00    
     12      1     25     13       89.50          0.1000E+06       87.00    
     13      1     25     14       88.50          0.1000E+06       86.00    
     14      1     25     15       87.50          0.1000E+06       85.00    
     15      1     25     16       86.50          0.1000E+06       84.00    
     16      1     25     17       85.50          0.1000E+06       83.00    
     17      1     25     18       84.50          0.1000E+06       82.00    
     18      1     25     19       83.50          0.1000E+06       81.00    
     19      1     25     20       82.50          0.1000E+06       80.00    
     20      1     25     21       81.50          0.1000E+06       79.00    
     21      1     25     22       80.50          0.1000E+06       78.00    
     22      1     25     23       79.50          0.1000E+06       77.00    
     23      1     25     24       78.50          0.1000E+06       76.00    
     24      1     25     25       77.50          0.1000E+06       75.00    
     25      1     25     26       77.40          0.1000E+06       74.90    
     26      1     25     27       77.30          0.1000E+06       74.80    
     27      1     25     28       77.20          0.1000E+06       74.70    
     28      1     25     29       77.10          0.1000E+06       74.60    
     29      1     25     30       77.00          0.1000E+06       74.50    
     30      1     25     31       76.90          0.1000E+06       74.40    
     31      1     25     32       76.80          0.1000E+06       74.30    
     32      1     25     33       76.70          0.1000E+06       74.20    
     33      1     25     34       76.60          0.1000E+06       74.10    
     34      1     25     35       76.50          0.1000E+06       74.00    
     35      1     25     36       76.40          0.1000E+06       73.90    
     36      1     25     37       76.30          0.1000E+06       73.80    
     37      1     25     38       76.20          0.1000E+06       73.70    
     38      1     25     39       76.10          0.1000E+06       73.60    
     39      1     25     40       76.00          0.1000E+06       73.50    
     40      1     25     41       75.90          0.1000E+06       73.40    
     41      1     25     42       75.80          0.1000E+06       73.30    
     42      1     25     43       75.70          0.1000E+06       73.20    
     43      1     25     44       75.60          0.1000E+06       73.10    
     44      1     25     45       75.50          0.1000E+06       73.00    
     45      1     25     46       75.40          0.1000E+06       72.90    
     46      1     25     47       75.30          0.1000E+06       72.80    
     47      1     25     48       75.20          0.1000E+06       72.70    
     48      1     25     49       75.10          0.1000E+06       72.60    
     49      1     25     50       75.00          0.1000E+06       72.50    

     49 RIVER REACHES



                         ET SURFACE
 READING ON UNIT   22 WITH FORMAT: (50E15.6)           



            EVAPOTRANSPIRATION RATE
 READING ON UNIT   22 WITH FORMAT: (50E15.6)           

         EXTINCTION DEPTH =   10.0000    



                           RECHARGE
 READING ON UNIT   19 WITH FORMAT: (50E15.6)           
 
 SOLVING FOR HEAD 

 OUTPUT CONTROL FOR STRESS PERIOD    1   TIME STEP    1
    SAVE HEAD FOR ALL LAYERS
    SAVE DRAWDOWN FOR ALL LAYERS
    SAVE BUDGET
    PRINT HEAD FOR ALL LAYERS
    PRINT BUDGET
 UBDSV2 SAVING "   CONSTANT HEAD" ON UNIT  53 AT TIME STEP  1, STRESS PERIOD   1
 UBDSV1 SAVING "FLOW RIGHT FACE " ON UNIT  53 AT TIME STEP  1, STRESS PERIOD   1
 UBDSV1 SAVING "FLOW FRONT FACE " ON UNIT  53 AT TIME STEP  1, STRESS PERIOD   1
 UBDSV1 SAVING "FLOW LOWER FACE " ON UNIT  53 AT TIME STEP  1, STRESS PERIOD   1
 UBDSV4 SAVING "   RIVER LEAKAGE" ON UNIT  53 AT TIME STEP  1, STRESS PERIOD   1
 UBDSV3 SAVING "              ET" ON UNIT  53 AT TIME STEP  1, STRESS PERIOD   1
 UBDSV3 SAVING "        RECHARGE" ON UNIT  53 AT TIME STEP  1, STRESS PERIOD   1
1
              HEAD IN LAYER   1 AT END OF TIME STEP   1 IN STRESS PERIOD    1
  ---------------------------------------------------------------------------

            1           2           3           4           5           6           7           8           9          10
           11          12          13          14          15          16          17          18          19          20
           21          22          23          24          25          26          27          28          29          30
           31          32          33          34          35          36          37          38          39          40
           41          42          43          44          45          46          47          48          49          50
 ........................................................................................................................
   1  -1000.0     -1000.0     -1000.0     -1000.0     -1000.0     -1000.0     -1000.0     -1000.0     -1000.0     -1000.0    
      -1000.0     -1000.0     -1000.0     -1000.0     -1000.0     -1000.0     -1000.0     -1000.0     -1000.0     -1000.0    
      -1000.0     -1000.0     -1000.0     -1000.0     -1000.0     -1000.0     -1000.0     -1000.0     -1000.0     -1000.0    
      -1000.0     -1000.0     -1000.0     -1000.0     -1000.0     -1000.0     -1000.0     -1000.0     -1000.0     -1000.0    
      -1000.0     -1000.0     -1000.0     -1000.0     -1000.0     -1000.0     -1000.0     -1000.0     -1000.0       70.00    
   2  -1000.0     -1000.0     -1000.0     -1000.0     -1000.0       87.11       87.00       86.81       86.60       86.34    
        86.14       85.89       85.60       85.29       84.96       84.61       84.24       83.86       83.47       83.08    
        82.68       82.27       81.86       81.45       81.03       80.61       80.20       79.77       79.35       78.93    
        78.51       78.08       77.66       77.23       76.81       76.38       75.94       75.51       75.07       74.63    
        74.19       73.74       73.29       72.83       72.37       71.90       71.43       70.96       70.48       70.00    
   3  -1000.0     -1000.0     -1000.0     -1000.0       87.36       87.22       87.05       86.85       86.62       86.41    
        86.17       85.91       85.62       85.31       84.97       84.62       84.25       83.87       83.48       83.08    
        82.68       82.27       81.86       81.45       81.03       80.61       80.19       79.77       79.35       78.93    
        78.51       78.08       77.66       77.23       76.81       76.38       75.94       75.51       75.07       74.63    
        74.19       73.74       73.29       72.83       72.37       71.90       71.43       70.96       70.48       70.00    
   4  -1000.0     -1000.0     -1000.0       87.65       87.49       87.33       87.14       86.92       86.71       86.48    
        86.23       85.96       85.66       85.34       85.00       84.64       84.26       83.88       83.49       83.09    
        82.69       82.28       81.87       81.45       81.03       80.61       80.19       79.77       79.35       78.93    
        78.50       78.08       77.66       77.23       76.80       76.38       75.95       75.51       75.08       74.64    
        74.19       73.74       73.29       72.83       72.37       71.91       71.44       70.96       70.48       70.00    
   5  -1000.0     -1000.0       87.93       87.79       87.63       87.45       87.24       87.04       86.82       86.58    
        86.31       86.03       85.72       85.39       85.04       84.67       84.29       83.90       83.51       83.11    
        82.70       82.29       81.87       81.45       81.03       80.61       80.19       79.77       79.34       78.92    
        78.50       78.08       77.65       77.23       76.80       76.38       75.95       75.51       75.08       74.64    
        74.20       73.75       73.30       72.84       72.38       71.91       71.44       70.96       70.48       70.00    
   6  -1000.0       88.18       88.07       87.93       87.77       87.59       87.39       87.17       86.94       86.68    
        86.41       86.11       85.79       85.45       85.09       84.71       84.32       83.93       83.53       83.12    
        82.71       82.29       81.87       81.45       81.03       80.61       80.18       79.76       79.34       78.91    
        78.49       78.07       77.65       77.22       76.80       76.37       75.95       75.52       75.08       74.64    
        74.20       73.76       73.30       72.85       72.38       71.92       71.44       70.97       70.49       70.00    
   7  -1000.0       88.28       88.21       88.09       87.93       87.75       87.55       87.32       87.07       86.81    
        86.51       86.20       85.87       85.51       85.14       84.76       84.36       83.96       83.55       83.14    
        82.72       82.30       81.88       81.45       81.03       80.60       80.17       79.75       79.33       78.90    
        78.48       78.06       77.64       77.22       76.80       76.37       75.95       75.52       75.09       74.65    
        74.21       73.76       73.31       72.86       72.39       71.92       71.45       70.97       70.49       70.00    
   8  -1000.0       88.45       88.38       88.27       88.11       87.93       87.72       87.48       87.22       86.94    
        86.64       86.31       85.96       85.59       85.21       84.81       84.41       84.00       83.58       83.16    
        82.74       82.31       81.88       81.45       81.02       80.59       80.16       79.74       79.31       78.89    
        78.47       78.05       77.63       77.21       76.79       76.37       75.95       75.52       75.09       74.66    
        74.22       73.78       73.32       72.87       72.40       71.93       71.46       70.98       70.49       70.00    
   9  -1000.0       88.65       88.59       88.46       88.31       88.12       87.90       87.66       87.39       87.10    
        86.78       86.43       86.07       85.68       85.28       84.87       84.46       84.04       83.61       83.18    
        82.75       82.32       81.88       81.45       81.01       80.58       80.15       79.72       79.30       78.88    
        78.46       78.04       77.62       77.21       76.79       76.37       75.95       75.53       75.10       74.67    
        74.23       73.79       73.34       72.88       72.42       71.95       71.47       70.98       70.49       70.00    
  10  -1000.0       88.89       88.80       88.68       88.52       88.34       88.11       87.86       87.58       87.27    
        86.93       86.57       86.18       85.78       85.36       84.94       84.51       84.08       83.65       83.21    
        82.77       82.32       81.88       81.44       81.00       80.56       80.13       79.70       79.28       78.85    
        78.44       78.02       77.61       77.20       76.78       76.37       75.95       75.54       75.11       74.68    
        74.25       73.81       73.36       72.90       72.44       71.96       71.48       70.99       70.50       70.00    
  11  -1000.0       89.10       89.04       88.92       88.77       88.58       88.35       88.08       87.79       87.46    
        87.10       86.72       86.31       85.88       85.44       85.00       84.57       84.13       83.68       83.23    
        82.78       82.33       81.87       81.42       80.98       80.54       80.10       79.67       79.25       78.83    
        78.41       78.00       77.59       77.18       76.78       76.37       75.96       75.54       75.13       74.70    
        74.27       73.83       73.39       72.93       72.46       71.99       71.50       71.01       70.51       70.00    
  12  -1000.0       89.37       89.31       89.20       89.05       88.85       88.61       88.33       88.02       87.67    
        87.29       86.88       86.45       85.98       85.49       85.07       84.63       84.18       83.72       83.26    
        82.79       82.33       81.86       81.40       80.95       80.51       80.07       79.64       79.21       78.79    
        78.38       77.97       77.57       77.17       76.77       76.37       75.96       75.56       75.14       74.72    
        74.30       73.86       73.42       72.96       72.49       72.01       71.52       71.02       70.51       70.00    
  13  -1000.0       89.69       89.64       89.52       89.36       89.15       88.90       88.61       88.27       87.91    
        87.51       87.07       86.61       86.09       85.49       85.13       84.70       84.24       83.76       83.28    
        82.80       82.32       81.85       81.38       80.92       80.47       80.02       79.59       79.17       78.75    
        78.35       77.94       77.55       77.15       76.76       76.36       75.97       75.57       75.16       74.75    
        74.33       73.90       73.46       73.00       72.53       72.05       71.55       71.04       70.53       70.00    
  14  -1000.0       90.06       90.01       89.89       89.72       89.49       89.22       88.91       88.56       88.17    
        87.74       87.29       86.80       86.29       85.75       85.28       84.80       84.30       83.80       83.30    
        82.80       82.31       81.82       81.34       80.87       80.41       79.97       79.54       79.11       78.70    
        78.30       77.91       77.52       77.13       76.75       76.36       75.98       75.59       75.19       74.79    
        74.37       73.95       73.51       73.05       72.58       72.09       71.59       71.07       70.54       70.00    
  15  -1000.0       90.49       90.42       90.30       90.11       89.87       89.58       89.25       88.87       88.45    
        88.00       87.52       87.02       86.49       85.95       85.42       84.90       84.37       83.85       83.32    
        82.80       82.28       81.78       81.29       80.81       80.35       79.90       79.47       79.05       78.64    
        78.25       77.86       77.48       77.11       76.73       76.36       75.99       75.61       75.22       74.83    
        74.42       74.00       73.57       73.12       72.64       72.15       71.64       71.10       70.56       70.00    
  16  -1000.0       90.97       90.90       90.76       90.56       90.30       89.98       89.62       89.21       88.76    
        88.28       87.78       87.24       86.69       86.13       85.57       85.00       84.44       83.88       83.33    
        82.78       82.25       81.72       81.22       80.73       80.26       79.81       79.38       78.97       78.57    
        78.18       77.81       77.44       77.08       76.72       76.36       76.00       75.63       75.26       74.88    
        74.49       74.08       73.65       73.20       72.72       72.22       71.70       71.15       70.58       70.00    
  17  -1000.0       91.51       91.43       91.28       91.06       90.77       90.42       90.02       89.58       89.10    
        88.59       88.04       87.48       86.90       86.30       85.70       85.10       84.50       83.91       83.33    
        82.75       82.19       81.65       81.13       80.63       80.16       79.70       79.28       78.87       78.48    
        78.10       77.74       77.39       77.04       76.70       76.36       76.01       75.66       75.31       74.94    
        74.56       74.16       73.75       73.30       72.83       72.32       71.78       71.21       70.61       70.00    
  18  -1000.0       92.12       92.03       91.86       91.61       91.28       90.90       90.46       89.98       89.46    
        88.91       88.32       87.72       87.10       86.47       85.83       85.19       84.56       83.93       83.31    
        82.71       82.12       81.55       81.01       80.50       80.02       79.57       79.15       78.75       78.37    
        78.01       77.67       77.33       77.00       76.68       76.35       76.03       75.70       75.36       75.01    
        74.65       74.27       73.87       73.43       72.96       72.44       71.89       71.29       70.66       70.00    
  19  -1000.0       92.81       92.70       92.50       92.22       91.85       91.42       90.94       90.41       89.84    
        89.24       88.62       87.97       87.31       86.63       85.95       85.27       84.60       83.93       83.28    
        82.64       82.02       81.42       80.86       80.34       79.86       79.41       78.99       78.61       78.25    
        77.91       77.58       77.27       76.96       76.66       76.35       76.05       75.74       75.42       75.10    
        74.76       74.40       74.01       73.59       73.12       72.61       72.03       71.40       70.72       70.00    
  20  -1000.0       93.59       93.46       93.23       92.89       92.48       91.99       91.45       90.87       90.24    
        89.59       88.92       88.22       87.51       86.79       86.07       85.35       84.63       83.92       83.22    
        82.54       81.88       81.26       80.68       80.14       79.65       79.21       78.81       78.44       78.10    
        77.78       77.48       77.19       76.91       76.63       76.35       76.07       75.79       75.49       75.20    
        74.89       74.56       74.19       73.79       73.34       72.82       72.23       71.56       70.81       70.00    
  21  -1000.0       94.48       94.32       94.04       93.64       93.16       92.60       92.00       91.35       90.66    
        89.95       89.22       88.48       87.72       86.95       86.18       85.41       84.64       83.89       83.15    
        82.42       81.71       81.05       80.44       79.88       79.39       78.96       78.58       78.24       77.93    
        77.64       77.37       77.11       76.86       76.61       76.36       76.10       75.84       75.57       75.31    
        75.04       74.74       74.41       74.04       73.61       73.11       72.51       71.79       70.95       70.00    
  22  -1000.0       95.50       95.30       94.94       94.46       93.89       93.26       92.57       91.85       91.10    
        90.33       89.54       88.73       87.92       87.10       86.27       85.45       84.64       83.84       83.04    
        82.25       81.50       80.79       80.13       79.56       79.07       78.66       78.32       78.01       77.74    
        77.49       77.25       77.02       76.80       76.58       76.36       76.14       75.90       75.62       75.44    
        75.21       74.96       74.67       74.34       73.95       73.48       72.90       72.14       71.17       70.00    
  23  -1000.0       96.71       96.43       95.95       95.36       94.68       93.94       93.17       92.36       91.54    
        90.70       89.85       88.98       88.11       87.24       86.36       85.48       84.61       83.75       82.89    
        82.05       81.23       80.46       79.74       79.13       78.67       78.30       78.01       77.75       77.52    
        77.31       77.11       76.92       76.74       76.55       76.37       76.18       75.99       75.79       75.61    
        75.42       75.20       74.97       74.70       74.37       73.97       73.44       72.69       71.58       70.00    
  24  -1000.0       98.17       97.72       97.07       96.31       95.50       94.65       93.78       92.89       91.98    
        91.07       90.15       89.23       88.30       87.37       86.43       85.50       84.57       83.64       82.72    
        81.81       80.92       80.05       79.24       78.56       78.15       77.87       77.65       77.46       77.29    
        77.13       76.97       76.82       76.68       76.53       76.38       76.24       76.09       75.94       75.79    
        75.64       75.47       75.30       75.10       74.87       74.58       74.19       73.58       72.44       70.00    
  25  -1000.0       100.0       99.20       98.27       97.31       96.34       95.37       94.39       93.41       92.42    
        91.44       90.45       89.46       88.47       87.48       86.49       85.50       84.51       83.52       82.53    
        81.54       80.56       79.58       78.61       77.69       77.51       77.38       77.26       77.15       77.04    
        76.93       76.82       76.72       76.61       76.50       76.40       76.29       76.19       76.08       75.97    
        75.87       75.76       75.65       75.53       75.42       75.29       75.15       74.97       74.51       70.00    
  26  -1000.0       98.17       97.72       97.07       96.32       95.50       94.65       93.78       92.89       91.99    
        91.08       90.16       89.23       88.31       87.37       86.44       85.51       84.57       83.65       82.73    
        81.82       80.92       80.06       79.25       78.56       78.16       77.87       77.65       77.46       77.29    
        77.13       76.97       76.82       76.68       76.53       76.39       76.24       76.09       75.95       75.79    
        75.64       75.47       75.30       75.10       74.87       74.58       74.19       73.58       72.44       70.00    
  27  -1000.0       96.71       96.43       95.96       95.36       94.68       93.95       93.17       92.37       91.55    
        90.71       89.86       89.00       88.13       87.25       86.37       85.50       84.62       83.76       82.90    
        82.06       81.25       80.47       79.76       79.15       78.68       78.31       78.02       77.76       77.53    
        77.32       77.12       76.93       76.74       76.56       76.37       76.19       76.00       75.82       75.62    
        75.42       75.20       74.96       74.69       74.37       73.97       73.44       72.69       71.58       70.00    
  28  -1000.0       95.51       95.31       94.95       94.47       93.90       93.26       92.58       91.86       91.11    
        90.34       89.56       88.75       87.94       87.12       86.30       85.47       84.65       83.84       83.05    
        82.27       81.52       80.81       80.16       79.58       79.09       78.68       78.33       78.02       77.75    
        77.49       77.26       77.03       76.80       76.58       76.36       76.14       75.92       75.69       75.46    
        75.22       74.96       74.67       74.34       73.95       73.48       72.89       72.14       71.17       70.00    
  29  -1000.0       94.48       94.33       94.04       93.65       93.17       92.62       92.01       91.37       90.69    
        89.98       89.25       88.51       87.75       86.98       86.21       85.44       84.67       83.91       83.16    
        82.44       81.74       81.08       80.46       79.91       79.41       78.98       78.60       78.26       77.94    
        77.65       77.38       77.12       76.86       76.61       76.36       76.10       75.83       75.56       75.31    
        75.03       74.74       74.41       74.03       73.61       73.10       72.51       71.79       70.95       70.00    
  30  -1000.0       93.59       93.47       93.24       92.90       92.49       92.01       91.47       90.89       90.27    
        89.63       88.95       88.26       87.56       86.84       86.11       85.39       84.67       83.95       83.25    
        82.57       81.92       81.29       80.71       80.17       79.67       79.23       78.82       78.46       78.12    
        77.80       77.49       77.20       76.91       76.63       76.35       76.06       75.76       75.42       75.17    
        74.87       74.55       74.19       73.79       73.33       72.82       72.23       71.56       70.81       70.00    
  31  -1000.0       92.81       92.71       92.51       92.23       91.87       91.44       90.96       90.44       89.88    
        89.28       88.66       88.02       87.36       86.69       86.01       85.33       84.65       83.98       83.32    
        82.68       82.06       81.46       80.90       80.37       79.88       79.43       79.01       78.63       78.26    
        77.92       77.59       77.27       76.96       76.66       76.35       76.04       75.72       75.39       75.08    
        74.75       74.39       74.01       73.58       73.12       72.60       72.03       71.40       70.72       70.00    
  32  -1000.0       92.12       92.04       91.87       91.62       91.30       90.92       90.49       90.02       89.50    
        88.95       88.38       87.79       87.17       86.54       85.90       85.26       84.62       83.99       83.36    
        82.75       82.16       81.59       81.05       80.54       80.05       79.60       79.17       78.77       78.39    
        78.03       77.68       77.34       77.01       76.68       76.35       76.02       75.68       75.34       75.00    
        74.64       74.26       73.86       73.42       72.95       72.44       71.89       71.29       70.66       70.00    
  33  -1000.0       91.51       91.44       91.29       91.07       90.78       90.44       90.05       89.62       89.15    
        88.64       88.11       87.56       86.98       86.39       85.79       85.19       84.58       83.98       83.39    
        82.81       82.24       81.70       81.17       80.67       80.19       79.73       79.30       78.89       78.50    
        78.12       77.75       77.40       77.05       76.70       76.35       76.01       75.65       75.29       74.93    
        74.55       74.16       73.74       73.29       72.82       72.32       71.78       71.21       70.61       70.00    
  34  -1000.0       90.97       90.90       90.77       90.57       90.31       90.01       89.65       89.25       88.82    
        88.35       87.86       87.34       86.80       86.25       85.68       85.11       84.53       83.96       83.40    
        82.85       82.30       81.77       81.26       80.77       80.30       79.84       79.41       78.99       78.59    
        78.20       77.82       77.45       77.08       76.72       76.36       75.99       75.63       75.25       74.87    
        74.48       74.07       73.64       73.19       72.72       72.22       71.70       71.15       70.58       70.00    
  35  -1000.0       90.48       90.42       90.30       90.12       89.89       89.61       89.28       88.91       88.51    
        88.08       87.62       87.13       86.62       86.10       85.56       85.02       84.48       83.94       83.40    
        82.87       82.34       81.83       81.33       80.85       80.38       79.93       79.49       79.07       78.66    
        78.26       77.87       77.49       77.11       76.74       76.36       75.99       75.60       75.22       74.82    
        74.42       74.00       73.57       73.11       72.64       72.15       71.63       71.10       70.56       70.00    
  36  -1000.0       90.05       89.99       89.88       89.72       89.50       89.24       88.94       88.60       88.23    
        87.82       87.39       86.93       86.46       85.96       85.45       84.94       84.42       83.90       83.39    
        82.87       82.37       81.87       81.39       80.91       80.45       80.00       79.57       79.14       78.73    
        78.32       77.92       77.53       77.14       76.75       76.37       75.98       75.59       75.19       74.78    
        74.37       73.94       73.50       73.05       72.58       72.09       71.59       71.07       70.54       70.00    
  37  -1000.0       89.67       89.62       89.51       89.36       89.16       88.92       88.63       88.32       87.96    
        87.58       87.18       86.75       86.30       85.83       85.34       84.85       84.36       83.86       83.37    
        82.87       82.38       81.90       81.43       80.96       80.50       80.06       79.62       79.20       78.78    
        78.37       77.96       77.56       77.16       76.77       76.37       75.97       75.57       75.16       74.75    
        74.33       73.90       73.46       73.00       72.53       72.05       71.55       71.04       70.52       70.00    
  38  -1000.0       89.33       89.28       89.18       89.04       88.85       88.62       88.35       88.05       87.72    
        87.37       86.98       86.57       86.15       85.70       85.24       84.77       84.30       83.82       83.34    
        82.86       82.39       81.92       81.45       81.00       80.55       80.10       79.67       79.24       78.82    
        78.40       77.99       77.59       77.18       76.78       76.37       75.97       75.56       75.15       74.73    
        74.30       73.86       73.42       72.96       72.49       72.01       71.52       71.02       70.51       70.00    
  39  -1000.0       89.04       88.99       88.89       88.75       88.57       88.35       88.10       87.82       87.50    
        87.17       86.80       86.41       86.01       85.58       85.14       84.69       84.23       83.77       83.31    
        82.85       82.39       81.93       81.47       81.02       80.58       80.14       79.70       79.27       78.85    
        78.43       78.02       77.61       77.20       76.79       76.38       75.96       75.55       75.13       74.70    
        74.27       73.83       73.39       72.93       72.46       71.99       71.50       71.01       70.51       70.00    
  40  -1000.0       88.80       88.74       88.64       88.50       88.32       88.11       87.87       87.60       87.31    
        86.98       86.64       86.27       85.88       85.47       85.04       84.61       84.17       83.73       83.28    
        82.83       82.38       81.93       81.48       81.04       80.60       80.16       79.73       79.30       78.88    
        78.46       78.04       77.62       77.21       76.79       76.38       75.96       75.54       75.12       74.69    
        74.25       73.81       73.36       72.90       72.44       71.96       71.48       70.99       70.50       70.00    
  41  -1000.0       88.60       88.52       88.41       88.27       88.10       87.90       87.67       87.41       87.12    
        86.82       86.48       86.13       85.76       85.37       84.96       84.54       84.11       83.68       83.25    
        82.81       82.37       81.93       81.49       81.05       80.61       80.18       79.75       79.32       78.90    
        78.48       78.06       77.64       77.22       76.80       76.38       75.96       75.54       75.11       74.67    
        74.24       73.79       73.34       72.88       72.42       71.95       71.47       70.98       70.49       70.00    
  42  -1000.0       88.38       88.33       88.22       88.07       87.90       87.70       87.48       87.23       86.96    
        86.66       86.35       86.01       85.65       85.27       84.88       84.47       84.06       83.64       83.21    
        82.79       82.35       81.92       81.49       81.06       80.62       80.19       79.77       79.34       78.92    
        78.49       78.07       77.65       77.23       76.81       76.38       75.96       75.53       75.10       74.66    
        74.22       73.78       73.33       72.87       72.41       71.94       71.46       70.98       70.49       70.00    
  43  -1000.0       88.20       88.14       88.04       87.89       87.72       87.53       87.31       87.07       86.81    
        86.53       86.22       85.90       85.55       85.19       84.80       84.41       84.01       83.60       83.18    
        82.76       82.34       81.91       81.49       81.06       80.63       80.20       79.78       79.35       78.93    
        78.50       78.08       77.66       77.24       76.81       76.39       75.96       75.53       75.09       74.66    
        74.21       73.77       73.32       72.86       72.39       71.93       71.45       70.97       70.49       70.00    
  44  -1000.0       88.05       87.98       87.87       87.73       87.56       87.37       87.16       86.93       86.68    
        86.41       86.12       85.80       85.47       85.11       84.74       84.36       83.96       83.56       83.16    
        82.74       82.33       81.91       81.48       81.06       80.64       80.21       79.79       79.36       78.94    
        78.51       78.09       77.67       77.24       76.81       76.39       75.96       75.52       75.09       74.65    
        74.21       73.76       73.31       72.85       72.39       71.92       71.44       70.97       70.49       70.00    
  45  -1000.0       87.96       87.85       87.73       87.58       87.41       87.22       87.02       86.80       86.56    
        86.30       86.02       85.72       85.39       85.05       84.68       84.31       83.93       83.53       83.13    
        82.72       82.31       81.90       81.48       81.06       80.64       80.22       79.79       79.37       78.94    
        78.52       78.10       77.67       77.24       76.82       76.39       75.96       75.52       75.09       74.65    
        74.20       73.75       73.30       72.84       72.38       71.91       71.44       70.96       70.48       70.00    
  46  -1000.0     -1000.0       87.73       87.60       87.45       87.28       87.09       86.90       86.69       86.46    
        86.21       85.94       85.65       85.33       84.99       84.64       84.27       83.89       83.51       83.11    
        82.71       82.30       81.89       81.48       81.06       80.64       80.22       79.80       79.37       78.95    
        78.53       78.10       77.67       77.25       76.82       76.39       75.96       75.52       75.08       74.64    
        74.20       73.75       73.29       72.84       72.37       71.91       71.44       70.96       70.48       70.00    
  47  -1000.0     -1000.0     -1000.0       87.46       87.32       87.16       86.99       86.78       86.59       86.37    
        86.14       85.88       85.59       85.28       84.95       84.60       84.24       83.87       83.49       83.09    
        82.70       82.29       81.88       81.47       81.06       80.64       80.22       79.80       79.38       78.95    
        78.53       78.10       77.68       77.25       76.82       76.39       75.96       75.52       75.08       74.64    
        74.19       73.74       73.29       72.83       72.37       71.90       71.43       70.96       70.48       70.00    
  48  -1000.0     -1000.0     -1000.0     -1000.0       87.20       87.06       86.91       86.72       86.50       86.30    
        86.08       85.83       85.55       85.25       84.93       84.58       84.22       83.85       83.47       83.08    
        82.69       82.29       81.88       81.47       81.06       80.64       80.22       79.80       79.38       78.96    
        78.53       78.11       77.68       77.25       76.82       76.39       75.96       75.52       75.08       74.64    
        74.19       73.74       73.29       72.83       72.37       71.90       71.43       70.96       70.48       70.00    
  49  -1000.0     -1000.0     -1000.0     -1000.0     -1000.0       86.96       86.85       86.68       86.48       86.24    
        86.04       85.80       85.53       85.23       84.91       84.57       84.21       83.84       83.47       83.08    
        82.68       82.28       81.88       81.47       81.06       80.64       80.22       79.80       79.38       78.96    
        78.53       78.11       77.68       77.25       76.82       76.39       75.96       75.52       75.08       74.64    
        74.19       73.74       73.29       72.83       72.37       71.90       71.43       70.96       70.48       70.00    
  50  -1000.0     -1000.0     -1000.0     -1000.0     -1000.0     -1000.0     -1000.0     -1000.0     -1000.0     -1000.0    
      -1000.0     -1000.0     -1000.0     -1000.0     -1000.0     -1000.0     -1000.0     -1000.0     -1000.0     -1000.0    
      -1000.0     -1000.0     -1000.0     -1000.0     -1000.0     -1000.0     -1000.0     -1000.0     -1000.0     -1000.0    
      -1000.0     -1000.0     -1000.0     -1000.0     -1000.0     -1000.0     -1000.0     -1000.0     -1000.0     -1000.0    
      -1000.0     -1000.0     -1000.0     -1000.0     -1000.0     -1000.0     -1000.0     -1000.0     -1000.0       70.00    
1
              HEAD IN LAYER   2 AT END OF TIME STEP   1 IN STRESS PERIOD    1
  ---------------------------------------------------------------------------

            1           2           3           4           5           6           7           8           9          10
           11          12          13          14          15          16          17          18          19          20
           21          22          23          24          25          26          27          28          29          30
           31          32          33          34          35          36          37          38          39          40
           41          42          43          44          45          46          47          48          49          50
 ........................................................................................................................
   1  -1000.0     -1000.0     -1000.0     -1000.0     -1000.0     -1000.0     -1000.0     -1000.0     -1000.0     -1000.0    
      -1000.0     -1000.0     -1000.0     -1000.0     -1000.0     -1000.0     -1000.0     -1000.0     -1000.0     -1000.0    
      -1000.0     -1000.0     -1000.0     -1000.0     -1000.0     -1000.0     -1000.0     -1000.0     -1000.0     -1000.0    
      -1000.0     -1000.0     -1000.0     -1000.0     -1000.0     -1000.0     -1000.0     -1000.0     -1000.0     -1000.0    
      -1000.0     -1000.0     -1000.0     -1000.0     -1000.0     -1000.0     -1000.0     -1000.0     -1000.0       70.00    
   2  -1000.0     -1000.0     -1000.0     -1000.0     -1000.0     -1000.0     -1000.0       86.81       86.60       86.34    
        86.14       85.89       85.60       85.29       84.96       84.61       84.24       83.86       83.47       83.08    
        82.68       82.27       81.86       81.45       81.03       80.61       80.20       79.77       79.35       78.93    
        78.51       78.08       77.66       77.23       76.81       76.38       75.94       75.51       75.07       74.63    
        74.19       73.74       73.29       72.83       72.37       71.90       71.43       70.96       70.48       70.00    
   3  -1000.0     -1000.0     -1000.0     -1000.0     -1000.0     -1000.0       87.05       86.85       86.62       86.41    
        86.17       85.91       85.62       85.31       84.97       84.62       84.25       83.87       83.48       83.08    
        82.68       82.27       81.86       81.45       81.03       80.61       80.19       79.77       79.35       78.93    
        78.51       78.08       77.66       77.23       76.81       76.38       75.94       75.51       75.07       74.63    
        74.19       73.74       73.29       72.83       72.37       71.90       71.43       70.96       70.48       70.00    
   4  -1000.0     -1000.0     -1000.0     -1000.0     -1000.0       87.33       87.14       86.92       86.71       86.48    
        86.23       85.96       85.66       85.34       85.00       84.64       84.26       83.88       83.49       83.09    
        82.69       82.28       81.87       81.45       81.03       80.61       80.19       79.77       79.35       78.93    
        78.50       78.08       77.66       77.23       76.80       76.38       75.95       75.51       75.08       74.64    
        74.19       73.74       73.29       72.83       72.37       71.91       71.44       70.96       70.48       70.00    
   5  -1000.0     -1000.0     -1000.0     -1000.0       87.63       87.45       87.24       87.04       86.82       86.58    
        86.31       86.03       85.72       85.39       85.04       84.67       84.29       83.90       83.51       83.11    
        82.70       82.29       81.87       81.45       81.03       80.61       80.19       79.77       79.34       78.92    
        78.50       78.08       77.65       77.23       76.80       76.38       75.95       75.51       75.08       74.64    
        74.20       73.75       73.30       72.84       72.38       71.91       71.44       70.96       70.48       70.00    
   6  -1000.0     -1000.0     -1000.0       87.93       87.77       87.59       87.39       87.17       86.94       86.68    
        86.41       86.11       85.79       85.45       85.09       84.71       84.32       83.93       83.53       83.12    
        82.71       82.29       81.87       81.45       81.03       80.61       80.18       79.76       79.34       78.91    
        78.49       78.07       77.65       77.22       76.80       76.37       75.95       75.52       75.08       74.64    
        74.20       73.76       73.30       72.85       72.38       71.92       71.44       70.97       70.49       70.00    
   7  -1000.0     -1000.0       88.21       88.09       87.93       87.75       87.55       87.32       87.07       86.81    
        86.51       86.20       85.87       85.51       85.14       84.76       84.36       83.96       83.55       83.14    
        82.72       82.30       81.88       81.45       81.03       80.60       80.17       79.75       79.33       78.90    
        78.48       78.06       77.64       77.22       76.80       76.37       75.95       75.52       75.09       74.65    
        74.21       73.76       73.31       72.86       72.39       71.92       71.45       70.97       70.49       70.00    
   8  -1000.0       88.45       88.38       88.27       88.11       87.93       87.72       87.48       87.22       86.94    
        86.64       86.31       85.96       85.59       85.21       84.81       84.41       84.00       83.58       83.16    
        82.74       82.31       81.88       81.45       81.02       80.59       80.16       79.74       79.31       78.89    
        78.47       78.05       77.63       77.21       76.79       76.37       75.95       75.52       75.09       74.66    
        74.22       73.78       73.32       72.87       72.40       71.93       71.46       70.98       70.49       70.00    
   9  -1000.0       88.65       88.59       88.46       88.31       88.12       87.90       87.66       87.39       87.10    
        86.78       86.43       86.07       85.68       85.28       84.87       84.46       84.04       83.61       83.18    
        82.75       82.32       81.88       81.45       81.01       80.58       80.15       79.72       79.30       78.88    
        78.46       78.04       77.62       77.21       76.79       76.37       75.95       75.53       75.10       74.67    
        74.23       73.79       73.34       72.88       72.42       71.95       71.47       70.98       70.49       70.00    
  10  -1000.0       88.89       88.80       88.68       88.52       88.34       88.11       87.86       87.58       87.27    
        86.93       86.57       86.18       85.78       85.36       84.94       84.51       84.08       83.65       83.21    
        82.77       82.32       81.88       81.44       81.00       80.56       80.13       79.70       79.28       78.85    
        78.44       78.02       77.61       77.20       76.78       76.37       75.95       75.54       75.11       74.68    
        74.25       73.81       73.36       72.90       72.44       71.96       71.48       70.99       70.50       70.00    
  11  -1000.0       89.10       89.04       88.92       88.77       88.58       88.35       88.08       87.79       87.46    
        87.10       86.72       86.31       85.88       85.44       85.00       84.57       84.13       83.68       83.23    
        82.78       82.33       81.87       81.42       80.98       80.54       80.10       79.67       79.25       78.83    
        78.41       78.00       77.59       77.18       76.78       76.37       75.96       75.54       75.13       74.70    
        74.27       73.83       73.39       72.93       72.46       71.99       71.50       71.01       70.51       70.00    
  12  -1000.0       89.37       89.31       89.20       89.05       88.85       88.61       88.33       88.02       87.67    
        87.29       86.88       86.45       85.98       85.49       85.07       84.63       84.18       83.72       83.26    
        82.79       82.33       81.86       81.40       80.95       80.51       80.07       79.64       79.21       78.79    
        78.38       77.97       77.57       77.17       76.77       76.37       75.96       75.56       75.14       74.72    
        74.30       73.86       73.42       72.96       72.49       72.01       71.52       71.02       70.51       70.00    
  13  -1000.0       89.69       89.64       89.52       89.36       89.15       88.90       88.61       88.27       87.91    
        87.51       87.07       86.61       86.09       85.49       85.13       84.70       84.24       83.76       83.28    
        82.80       82.32       81.85       81.38       80.92       80.47       80.02       79.59       79.17       78.75    
        78.35       77.94       77.55       77.15       76.76       76.36       75.97       75.57       75.16       74.75    
        74.33       73.90       73.46       73.00       72.53       72.05       71.55       71.04       70.53       70.00    
  14  -1000.0       90.06       90.01       89.89       89.72       89.49       89.22       88.91       88.56       88.17    
        87.74       87.29       86.80       86.29       85.75       85.28       84.80       84.30       83.80       83.30    
        82.80       82.31       81.82       81.34       80.87       80.41       79.97       79.54       79.11       78.70    
        78.30       77.91       77.52       77.13       76.75       76.36       75.98       75.59       75.19       74.79    
        74.37       73.95       73.51       73.05       72.58       72.09       71.59       71.07       70.54       70.00    
  15  -1000.0       90.49       90.42       90.30       90.11       89.87       89.58       89.25       88.87       88.45    
        88.00       87.52       87.02       86.49       85.95       85.42       84.90       84.37       83.85       83.32    
        82.80       82.28       81.78       81.29       80.81       80.35       79.90       79.47       79.05       78.64    
        78.25       77.86       77.48       77.11       76.73       76.36       75.99       75.61       75.22       74.83    
        74.42       74.00       73.57       73.12       72.64       72.15       71.64       71.10       70.56       70.00    
  16  -1000.0       90.97       90.90       90.76       90.56       90.30       89.98       89.62       89.21       88.76    
        88.28       87.78       87.24       86.69       86.13       85.57       85.00       84.44       83.88       83.33    
        82.78       82.25       81.72       81.22       80.73       80.26       79.81       79.38       78.97       78.57    
        78.18       77.81       77.44       77.08       76.72       76.36       76.00       75.63       75.26       74.88    
        74.49       74.08       73.65       73.20       72.72       72.22       71.70       71.15       70.58       70.00    
  17  -1000.0       91.51       91.43       91.28       91.06       90.77       90.42       90.02       89.58       89.10    
        88.59       88.04       87.48       86.90       86.30       85.70       85.10       84.50       83.91       83.33    
        82.75       82.19       81.65       81.13       80.63       80.16       79.70       79.28       78.87       78.48    
        78.10       77.74       77.39       77.04       76.70       76.36       76.01       75.66       75.31       74.94    
        74.56       74.16       73.75       73.30       72.83       72.32       71.78       71.21       70.61       70.00    
  18  -1000.0       92.12       92.03       91.86       91.61       91.28       90.90       90.46       89.98       89.46    
        88.91       88.32       87.72       87.10       86.47       85.83       85.19       84.56       83.93       83.31    
        82.71       82.12       81.55       81.01       80.50       80.02       79.57       79.15       78.75       78.37    
        78.01       77.67       77.33       77.00       76.68       76.35       76.03       75.70       75.36       75.01    
        74.65       74.27       73.87       73.43       72.96       72.44       71.89       71.29       70.66       70.00    
  19  -1000.0       92.81       92.70       92.50       92.22       91.85       91.42       90.94       90.41       89.84    
        89.24       88.62       87.97       87.31       86.63       85.95       85.27       84.60       83.93       83.28    
        82.64       82.02       81.42       80.86       80.34       79.86       79.41       78.99       78.61       78.25    
        77.91       77.58       77.27       76.96       76.66       76.35       76.05       75.74       75.42       75.10    
        74.76       74.40       74.01       73.59       73.12       72.61       72.03       71.40       70.72       70.00    
  20  -1000.0       93.59       93.46       93.23       92.89       92.48       91.99       91.45       90.87       90.24    
        89.59       88.92       88.22       87.51       86.79       86.07       85.35       84.63       83.92       83.22    
        82.54       81.88       81.26       80.68       80.14       79.65       79.21       78.81       78.44       78.10    
        77.78       77.48       77.19       76.91       76.63       76.35       76.07       75.79       75.49       75.20    
        74.89       74.56       74.19       73.79       73.34       72.82       72.23       71.56       70.81       70.00    
  21  -1000.0       94.48       94.32       94.04       93.64       93.16       92.60       92.00       91.35       90.66    
        89.95       89.22       88.48       87.72       86.95       86.18       85.41       84.64       83.89       83.15    
        82.42       81.71       81.05       80.44       79.88       79.39       78.96       78.58       78.24       77.93    
        77.64       77.37       77.11       76.86       76.61       76.36       76.10       75.84       75.57       75.31    
        75.04       74.74       74.41       74.04       73.61       73.11       72.51       71.79       70.95       70.00    
  22  -1000.0       95.50       95.30       94.94       94.46       93.89       93.26       92.57       91.85       91.10    
        90.33       89.54       88.73       87.92       87.10       86.27       85.45       84.64       83.84       83.04    
        82.25       81.50       80.79       80.13       79.56       79.07       78.66       78.32       78.01       77.74    
        77.49       77.25       77.02       76.80       76.58       76.36       76.14       75.90       75.62       75.44    
        75.21       74.96       74.67       74.34       73.95       73.48       72.90       72.14       71.17       70.00    
  23  -1000.0       96.71       96.43       95.95       95.36       94.68       93.94       93.17       92.36       91.54    
        90.70       89.85       88.98       88.11       87.24       86.36       85.48       84.61       83.75       82.89    
        82.05       81.23       80.46       79.74       79.13       78.67       78.30       78.01       77.75       77.52    
        77.31       77.11       76.92       76.74       76.55       76.37       76.18       75.99       75.79       75.61    
        75.42       75.20       74.97       74.70       74.37       73.97       73.44       72.69       71.58       70.00    
  24  -1000.0       98.17       97.72       97.07       96.31       95.50       94.65       93.78       92.89       91.98    
        91.07       90.15       89.23       88.30       87.37       86.43       85.50       84.57       83.64       82.72    
        81.81       80.92       80.05       79.24       78.56       78.15       77.87       77.65       77.46       77.29    
        77.13       76.97       76.82       76.68       76.53       76.38       76.24       76.09       75.94       75.79    
        75.64       75.47       75.30       75.10       74.87       74.58       74.19       73.58       72.44       70.00    
  25  -1000.0       100.0       99.20       98.26       97.31       96.34       95.36       94.39       93.40       92.42    
        91.43       90.45       89.46       88.47       87.48       86.49       85.50       84.51       83.52       82.53    
        81.55       80.56       79.58       78.61       77.69       77.51       77.38       77.26       77.15       77.04    
        76.93       76.82       76.72       76.61       76.50       76.40       76.29       76.19       76.08       75.97    
        75.87       75.76       75.65       75.53       75.42       75.29       75.15       74.97       74.50       70.00    
  26  -1000.0       98.17       97.72       97.07       96.32       95.50       94.65       93.78       92.89       91.99    
        91.08       90.16       89.23       88.31       87.37       86.44       85.51       84.57       83.65       82.73    
        81.82       80.92       80.06       79.25       78.56       78.16       77.87       77.65       77.46       77.29    
        77.13       76.97       76.82       76.68       76.53       76.39       76.24       76.09       75.95       75.79    
        75.64       75.47       75.30       75.10       74.87       74.58       74.19       73.58       72.44       70.00    
  27  -1000.0       96.71       96.43       95.96       95.36       94.68       93.95       93.17       92.37       91.55    
        90.71       89.86       89.00       88.13       87.25       86.37       85.50       84.62       83.76       82.90    
        82.06       81.25       80.47       79.76       79.15       78.68       78.31       78.02       77.76       77.53    
        77.32       77.12       76.93       76.74       76.56       76.37       76.19       76.00       75.82       75.62    
        75.42       75.20       74.96       74.69       74.37       73.97       73.44       72.69       71.58       70.00    
  28  -1000.0       95.51       95.31       94.95       94.47       93.90       93.26       92.58       91.86       91.11    
        90.34       89.56       88.75       87.94       87.12       86.30       85.47       84.65       83.84       83.05    
        82.27       81.52       80.81       80.16       79.58       79.09       78.68       78.33       78.02       77.75    
        77.49       77.26       77.03       76.80       76.58       76.36       76.14       75.92       75.69       75.46    
        75.22       74.96       74.67       74.34       73.95       73.48       72.89       72.14       71.17       70.00    
  29  -1000.0       94.48       94.33       94.04       93.65       93.17       92.62       92.01       91.37       90.69    
        89.98       89.25       88.51       87.75       86.98       86.21       85.44       84.67       83.91       83.16    
        82.44       81.74       81.08       80.46       79.91       79.41       78.98       78.60       78.26       77.94    
        77.65       77.38       77.12       76.86       76.61       76.36       76.10       75.83       75.56       75.31    
        75.03       74.74       74.41       74.03       73.61       73.10       72.51       71.79       70.95       70.00    
  30  -1000.0       93.59       93.47       93.24       92.90       92.49       92.01       91.47       90.89       90.27    
        89.62       88.95       88.26       87.56       86.84       86.11       85.39       84.67       83.95       83.25    
        82.57       81.92       81.29       80.71       80.17       79.67       79.23       78.82       78.46       78.12    
        77.80       77.49       77.20       76.91       76.63       76.35       76.06       75.76       75.42       75.17    
        74.87       74.55       74.19       73.79       73.33       72.82       72.23       71.56       70.81       70.00    
  31  -1000.0       92.81       92.71       92.51       92.23       91.87       91.44       90.96       90.44       89.88    
        89.28       88.66       88.02       87.36       86.69       86.01       85.33       84.65       83.98       83.32    
        82.68       82.06       81.46       80.90       80.37       79.88       79.43       79.01       78.63       78.26    
        77.92       77.59       77.27       76.96       76.66       76.35       76.04       75.72       75.39       75.08    
        74.75       74.39       74.01       73.58       73.12       72.60       72.03       71.40       70.72       70.00    
  32  -1000.0       92.12       92.04       91.87       91.62       91.30       90.92       90.49       90.02       89.50    
        88.95       88.38       87.79       87.17       86.54       85.90       85.26       84.62       83.99       83.36    
        82.75       82.16       81.59       81.05       80.54       80.05       79.60       79.17       78.77       78.39    
        78.03       77.68       77.34       77.01       76.68       76.35       76.02       75.68       75.34       75.00    
        74.64       74.26       73.86       73.42       72.95       72.44       71.89       71.29       70.66       70.00    
  33  -1000.0       91.51       91.44       91.29       91.07       90.78       90.44       90.05       89.62       89.15    
        88.64       88.11       87.56       86.98       86.39       85.79       85.19       84.58       83.98       83.39    
        82.81       82.24       81.70       81.17       80.67       80.19       79.73       79.30       78.89       78.50    
        78.12       77.75       77.40       77.05       76.70       76.35       76.01       75.65       75.29       74.93    
        74.55       74.16       73.74       73.29       72.82       72.32       71.78       71.21       70.61       70.00    
  34  -1000.0       90.97       90.90       90.77       90.57       90.31       90.01       89.65       89.25       88.82    
        88.35       87.86       87.34       86.80       86.25       85.68       85.11       84.53       83.96       83.40    
        82.85       82.30       81.77       81.26       80.77       80.30       79.84       79.41       78.99       78.59    
        78.20       77.82       77.45       77.08       76.72       76.36       75.99       75.63       75.25       74.87    
        74.48       74.07       73.64       73.19       72.72       72.22       71.70       71.15       70.58       70.00    
  35  -1000.0       90.48       90.42       90.30       90.12       89.89       89.61       89.28       88.91       88.51    
        88.08       87.62       87.13       86.62       86.10       85.56       85.02       84.48       83.94       83.40    
        82.87       82.34       81.83       81.33       80.85       80.38       79.93       79.49       79.07       78.66    
        78.26       77.87       77.49       77.11       76.74       76.36       75.99       75.60       75.22       74.82    
        74.42       74.00       73.57       73.11       72.64       72.15       71.63       71.10       70.56       70.00    
  36  -1000.0       90.05       89.99       89.88       89.72       89.50       89.24       88.94       88.60       88.23    
        87.82       87.39       86.93       86.46       85.96       85.45       84.94       84.42       83.90       83.39    
        82.87       82.37       81.87       81.39       80.91       80.45       80.00       79.57       79.14       78.73    
        78.32       77.92       77.53       77.14       76.75       76.37       75.98       75.59       75.19       74.78    
        74.37       73.94       73.50       73.05       72.58       72.09       71.59       71.07       70.54       70.00    
  37  -1000.0       89.67       89.62       89.51       89.36       89.16       88.92       88.63       88.32       87.96    
        87.58       87.18       86.75       86.30       85.83       85.34       84.85       84.36       83.86       83.37    
        82.87       82.38       81.90       81.43       80.96       80.50       80.06       79.62       79.20       78.78    
        78.37       77.96       77.56       77.16       76.77       76.37       75.97       75.57       75.16       74.75    
        74.33       73.90       73.46       73.00       72.53       72.05       71.55       71.04       70.52       70.00    
  38  -1000.0       89.33       89.28       89.18       89.04       88.85       88.62       88.35       88.05       87.72    
        87.37       86.98       86.57       86.15       85.70       85.24       84.77       84.30       83.82       83.34    
        82.86       82.39       81.92       81.45       81.00       80.55       80.10       79.67       79.24       78.82    
        78.40       77.99       77.59       77.18       76.78       76.37       75.97       75.56       75.15       74.73    
        74.30       73.86       73.42       72.96       72.49       72.01       71.52       71.02       70.51       70.00    
  39  -1000.0       89.04       88.99       88.89       88.75       88.57       88.35       88.10       87.82       87.50    
        87.17       86.80       86.41       86.01       85.58       85.14       84.69       84.23       83.77       83.31    
        82.85       82.39       81.93       81.47       81.02       80.58       80.14       79.70       79.27       78.85    
        78.43       78.02       77.61       77.20       76.79       76.38       75.96       75.55       75.13       74.70    
        74.27       73.83       73.39       72.93       72.46       71.99       71.50       71.01       70.51       70.00    
  40  -1000.0       88.80       88.74       88.64       88.50       88.32       88.11       87.87       87.60       87.31    
        86.98       86.64       86.27       85.88       85.47       85.04       84.61       84.17       83.73       83.28    
        82.83       82.38       81.93       81.48       81.04       80.60       80.16       79.73       79.30       78.88    
        78.46       78.04       77.62       77.21       76.79       76.38       75.96       75.54       75.12       74.69    
        74.25       73.81       73.36       72.90       72.44       71.96       71.48       70.99       70.50       70.00    
  41  -1000.0       88.60       88.52       88.41       88.27       88.10       87.90       87.67       87.41       87.12    
        86.82       86.48       86.13       85.76       85.37       84.96       84.54       84.11       83.68       83.25    
        82.81       82.37       81.93       81.49       81.05       80.61       80.18       79.75       79.32       78.90    
        78.48       78.06       77.64       77.22       76.80       76.38       75.96       75.54       75.11       74.67    
        74.24       73.79       73.34       72.88       72.42       71.95       71.47       70.98       70.49       70.00    
  42  -1000.0       88.38       88.33       88.22       88.07       87.90       87.70       87.48       87.23       86.96    
        86.66       86.35       86.01       85.65       85.27       84.88       84.47       84.06       83.64       83.21    
        82.79       82.35       81.92       81.49       81.06       80.62       80.19       79.77       79.34       78.92    
        78.49       78.07       77.65       77.23       76.81       76.38       75.96       75.53       75.10       74.66    
        74.22       73.78       73.33       72.87       72.41       71.94       71.46       70.98       70.49       70.00    
  43  -1000.0       88.20       88.14       88.04       87.89       87.72       87.53       87.31       87.07       86.81    
        86.53       86.22       85.90       85.55       85.19       84.80       84.41       84.01       83.60       83.18    
        82.76       82.34       81.91       81.49       81.06       80.63       80.20       79.78       79.35       78.93    
        78.50       78.08       77.66       77.24       76.81       76.39       75.96       75.53       75.09       74.66    
        74.21       73.77       73.32       72.86       72.39       71.93       71.45       70.97       70.49       70.00    
  44  -1000.0     -1000.0       87.98       87.87       87.73       87.56       87.37       87.16       86.93       86.68    
        86.41       86.12       85.80       85.47       85.11       84.74       84.36       83.96       83.56       83.16    
        82.74       82.33       81.91       81.48       81.06       80.64       80.21       79.79       79.36       78.94    
        78.51       78.09       77.67       77.24       76.81       76.39       75.96       75.52       75.09       74.65    
        74.21       73.76       73.31       72.85       72.39       71.92       71.44       70.97       70.49       70.00    
  45  -1000.0     -1000.0     -1000.0       87.73       87.58       87.41       87.22       87.02       86.80       86.56    
        86.30       86.02       85.72       85.39       85.05       84.68       84.31       83.93       83.53       83.13    
        82.72       82.31       81.90       81.48       81.06       80.64       80.22       79.79       79.37       78.94    
        78.52       78.10       77.67       77.24       76.82       76.39       75.96       75.52       75.09       74.65    
        74.20       73.75       73.30       72.84       72.38       71.91       71.44       70.96       70.48       70.00    
  46  -1000.0     -1000.0     -1000.0     -1000.0       87.45       87.28       87.09       86.90       86.69       86.46    
        86.21       85.94       85.65       85.33       84.99       84.64       84.27       83.89       83.51       83.11    
        82.71       82.30       81.89       81.48       81.06       80.64       80.22       79.80       79.37       78.95    
        78.53       78.10       77.67       77.25       76.82       76.39       75.96       75.52       75.08       74.64    
        74.20       73.75       73.29       72.84       72.37       71.91       71.44       70.96       70.48       70.00    
  47  -1000.0     -1000.0     -1000.0     -1000.0     -1000.0       87.16       86.99       86.78       86.59       86.37    
        86.14       85.88       85.59       85.28       84.95       84.60       84.24       83.87       83.49       83.09    
        82.70       82.29       81.88       81.47       81.06       80.64       80.22       79.80       79.38       78.95    
        78.53       78.10       77.68       77.25       76.82       76.39       75.96       75.52       75.08       74.64    
        74.19       73.74       73.29       72.83       72.37       71.90       71.43       70.96       70.48       70.00    
  48  -1000.0     -1000.0     -1000.0     -1000.0     -1000.0     -1000.0       86.91       86.72       86.50       86.30    
        86.08       85.83       85.55       85.25       84.93       84.58       84.22       83.85       83.47       83.08    
        82.69       82.29       81.88       81.47       81.06       80.64       80.22       79.80       79.38       78.96    
        78.53       78.11       77.68       77.25       76.82       76.39       75.96       75.52       75.08       74.64    
        74.19       73.74       73.29       72.83       72.37       71.90       71.43       70.96       70.48       70.00    
  49  -1000.0     -1000.0     -1000.0     -1000.0     -1000.0     -1000.0     -1000.0       86.68       86.48       86.24    
        86.04       85.80       85.53       85.23       84.91       84.57       84.21       83.84       83.47       83.08    
        82.68       82.28       81.88       81.47       81.06       80.64       80.22       79.80       79.38       78.96    
        78.53       78.11       77.68       77.25       76.82       76.39       75.96       75.52       75.08       74.64    
        74.19       73.74       73.29       72.83       72.37       71.90       71.43       70.96       70.48       70.00    
  50  -1000.0     -1000.0     -1000.0     -1000.0     -1000.0     -1000.0     -1000.0     -1000.0     -1000.0     -1000.0    
      -1000.0     -1000.0     -1000.0     -1000.0     -1000.0     -1000.0     -1000.0     -1000.0     -1000.0     -1000.0    
      -1000.0     -1000.0     -1000.0     -1000.0     -1000.0     -1000.0     -1000.0     -1000.0     -1000.0     -1000.0    
      -1000.0     -1000.0     -1000.0     -1000.0     -1000.0     -1000.0     -1000.0     -1000.0     -1000.0     -1000.0    
      -1000.0     -1000.0     -1000.0     -1000.0     -1000.0     -1000.0     -1000.0     -1000.0     -1000.0       70.00    
1
              HEAD IN LAYER   3 AT END OF TIME STEP   1 IN STRESS PERIOD    1
  ---------------------------------------------------------------------------

            1           2           3           4           5           6           7           8           9          10
           11          12          13          14          15          16          17          18          19          20
           21          22          23          24          25          26          27          28          29          30
[...]
        82.05       81.23       80.46       79.74       79.13       78.67       78.30       78.01       77.75       77.52    
        77.31       77.11       76.92       76.74       76.55       76.37       76.18       75.99       75.79       75.61    
        75.42       75.20       74.97       74.70       74.37       73.97       73.44       72.69       71.58       70.00    
  24  -1000.0       98.17       97.72       97.07       96.31       95.50       94.65       93.78       92.89       91.98    
        91.07       90.15       89.23       88.30       87.37       86.43       85.50       84.57       83.64       82.72    
        81.81       80.92       80.05       79.24       78.56       78.15       77.87       77.65       77.46       77.29    
        77.13       76.97       76.82       76.68       76.53       76.38       76.24       76.09       75.94       75.79    
        75.64       75.47       75.30       75.10       74.87       74.58       74.19       73.58       72.44       70.00    
  25  -1000.0       100.0       99.20       98.26       97.30       96.34       95.36       94.38       93.40       92.42    
        91.43       90.45       89.46       88.47       87.48       86.49       85.50       84.51       83.52       82.53    
        81.55       80.56       79.58       78.61       77.69       77.51       77.38       77.26       77.15       77.04    
        76.93       76.82       76.72       76.61       76.50       76.40       76.29       76.19       76.08       75.97    
        75.86       75.76       75.65       75.53       75.42       75.29       75.15       74.97       74.49       70.00    
  26  -1000.0       98.17       97.72       97.07       96.32       95.50       94.65       93.78       92.89       91.99    
        91.08       90.16       89.23       88.31       87.37       86.44       85.51       84.57       83.65       82.73    
        81.82       80.92       80.06       79.25       78.56       78.16       77.87       77.65       77.46       77.29    
        77.13       76.97       76.82       76.68       76.53       76.39       76.24       76.09       75.95       75.79    
        75.64       75.47       75.30       75.10       74.87       74.58       74.19       73.58       72.44       70.00    
  27  -1000.0       96.71       96.43       95.96       95.36       94.68       93.95       93.17       92.37       91.55    
        90.71       89.86       89.00       88.13       87.25       86.37       85.50       84.62       83.76       82.90    
        82.06       81.25       80.47       79.76       79.15       78.68       78.31       78.02       77.76       77.53    
        77.32       77.12       76.93       76.74       76.56       76.37       76.19       76.00       75.82       75.62    
        75.42       75.20       74.96       74.69       74.37       73.97       73.44       72.69       71.58       70.00    
  28  -1000.0       95.51       95.31       94.95       94.47       93.90       93.26       92.58       91.86       91.11    
        90.34       89.56       88.75       87.94       87.12       86.30       85.47       84.65       83.84       83.05    
        82.27       81.52       80.81       80.16       79.58       79.09       78.68       78.33       78.02       77.75    
        77.49       77.26       77.03       76.80       76.58       76.36       76.14       75.92       75.69       75.46    
        75.22       74.96       74.67       74.34       73.95       73.48       72.89       72.14       71.17       70.00    
  29  -1000.0       94.48       94.33       94.04       93.65       93.17       92.62       92.01       91.37       90.69    
        89.98       89.25       88.51       87.75       86.98       86.21       85.44       84.67       83.91       83.16    
        82.44       81.74       81.08       80.46       79.91       79.41       78.98       78.60       78.26       77.94    
        77.65       77.38       77.12       76.86       76.61       76.36       76.10       75.83       75.56       75.31    
        75.03       74.74       74.41       74.03       73.61       73.10       72.51       71.79       70.95       70.00    
  30  -1000.0       93.59       93.47       93.24       92.90       92.49       92.01       91.47       90.89       90.27    
        89.62       88.95       88.26       87.56       86.84       86.11       85.39       84.67       83.95       83.25    
        82.57       81.92       81.29       80.71       80.17       79.67       79.23       78.82       78.46       78.12    
        77.80       77.49       77.20       76.91       76.63       76.35       76.06       75.76       75.42       75.17    
        74.87       74.55       74.19       73.79       73.33       72.82       72.23       71.56       70.81       70.00    
  31  -1000.0       92.81       92.71       92.51       92.23       91.87       91.44       90.96       90.44       89.88    
        89.28       88.66       88.02       87.36       86.69       86.01       85.33       84.65       83.98       83.32    
        82.68       82.06       81.46       80.90       80.37       79.88       79.43       79.01       78.63       78.26    
        77.92       77.59       77.27       76.96       76.66       76.35       76.04       75.72       75.39       75.08    
        74.75       74.39       74.01       73.58       73.12       72.60       72.03       71.40       70.72       70.00    
  32  -1000.0       92.12       92.04       91.87       91.62       91.30       90.92       90.49       90.02       89.50    
        88.95       88.38       87.79       87.17       86.54       85.90       85.26       84.62       83.99       83.36    
        82.75       82.16       81.59       81.05       80.54       80.05       79.60       79.17       78.77       78.39    
        78.03       77.68       77.34       77.01       76.68       76.35       76.02       75.68       75.34       75.00    
        74.64       74.26       73.86       73.42       72.95       72.44       71.89       71.29       70.66       70.00    
  33  -1000.0       91.51       91.44       91.29       91.07       90.78       90.44       90.05       89.62       89.15    
        88.64       88.11       87.56       86.98       86.39       85.79       85.19       84.58       83.98       83.39    
        82.81       82.24       81.70       81.17       80.67       80.19       79.73       79.30       78.89       78.50    
        78.12       77.75       77.40       77.05       76.70       76.35       76.01       75.65       75.29       74.93    
        74.55       74.16       73.74       73.29       72.82       72.32       71.78       71.21       70.61       70.00    
  34  -1000.0       90.97       90.90       90.77       90.57       90.31       90.01       89.65       89.25       88.82    
        88.35       87.86       87.34       86.80       86.25       85.68       85.11       84.53       83.96       83.40    
        82.85       82.30       81.77       81.26       80.77       80.30       79.84       79.41       78.99       78.59    
        78.20       77.82       77.45       77.08       76.72       76.36       75.99       75.63       75.25       74.87    
        74.48       74.07       73.64       73.19       72.72       72.22       71.70       71.15       70.58       70.00    
  35  -1000.0       90.48       90.42       90.30       90.12       89.89       89.61       89.28       88.91       88.51    
        88.08       87.62       87.13       86.62       86.10       85.56       85.02       84.48       83.94       83.40    
        82.87       82.34       81.83       81.33       80.85       80.38       79.93       79.49       79.07       78.66    
        78.26       77.87       77.49       77.11       76.74       76.36       75.99       75.60       75.22       74.82    
        74.42       74.00       73.57       73.11       72.64       72.15       71.63       71.10       70.56       70.00    
  36  -1000.0       90.05       89.99       89.88       89.72       89.50       89.24       88.94       88.60       88.23    
        87.82       87.39       86.93       86.46       85.96       85.45       84.94       84.42       83.90       83.39    
        82.87       82.37       81.87       81.39       80.91       80.45       80.00       79.57       79.14       78.73    
        78.32       77.92       77.53       77.14       76.75       76.37       75.98       75.59       75.19       74.78    
        74.37       73.94       73.50       73.05       72.58       72.09       71.59       71.07       70.54       70.00    
  37  -1000.0       89.67       89.62       89.51       89.36       89.16       88.92       88.63       88.32       87.96    
        87.58       87.18       86.75       86.30       85.83       85.34       84.85       84.36       83.86       83.37    
        82.87       82.38       81.90       81.43       80.96       80.50       80.06       79.62       79.20       78.78    
        78.37       77.96       77.56       77.16       76.77       76.37       75.97       75.57       75.16       74.75    
        74.33       73.90       73.46       73.00       72.53       72.05       71.55       71.04       70.52       70.00    
  38  -1000.0       89.33       89.28       89.18       89.04       88.85       88.62       88.35       88.05       87.72    
        87.37       86.98       86.57       86.15       85.70       85.24       84.77       84.30       83.82       83.34    
        82.86       82.39       81.92       81.45       81.00       80.55       80.10       79.67       79.24       78.82    
        78.40       77.99       77.59       77.18       76.78       76.37       75.97       75.56       75.15       74.73    
        74.30       73.86       73.42       72.96       72.49       72.01       71.52       71.02       70.51       70.00    
  39  -1000.0       89.04       88.99       88.89       88.75       88.57       88.35       88.10       87.82       87.50    
        87.17       86.80       86.41       86.01       85.58       85.14       84.69       84.23       83.77       83.31    
        82.85       82.39       81.93       81.47       81.02       80.58       80.14       79.70       79.27       78.85    
        78.43       78.02       77.61       77.20       76.79       76.38       75.96       75.55       75.13       74.70    
        74.27       73.83       73.39       72.93       72.46       71.99       71.50       71.01       70.51       70.00    
  40  -1000.0       88.80       88.74       88.64       88.50       88.32       88.11       87.87       87.60       87.30    
        86.98       86.64       86.27       85.88       85.47       85.04       84.61       84.17       83.73       83.28    
        82.83       82.38       81.93       81.48       81.04       80.60       80.16       79.73       79.30       78.88    
        78.46       78.04       77.62       77.21       76.79       76.38       75.96       75.54       75.12       74.69    
        74.25       73.81       73.36       72.90       72.44       71.96       71.48       70.99       70.50       70.00    
  41  -1000.0       88.60       88.52       88.41       88.27       88.10       87.90       87.67       87.41       87.12    
        86.82       86.48       86.13       85.76       85.37       84.96       84.54       84.11       83.68       83.25    
        82.81       82.37       81.93       81.49       81.05       80.61       80.18       79.75       79.32       78.90    
        78.48       78.06       77.64       77.22       76.80       76.38       75.96       75.54       75.11       74.67    
        74.24       73.79       73.34       72.88       72.42       71.95       71.47       70.98       70.49       70.00    
  42  -1000.0     -1000.0       88.33       88.22       88.07       87.90       87.70       87.48       87.23       86.96    
        86.66       86.35       86.01       85.65       85.27       84.88       84.47       84.06       83.64       83.21    
        82.79       82.35       81.92       81.49       81.06       80.62       80.19       79.77       79.34       78.92    
        78.49       78.07       77.65       77.23       76.81       76.38       75.96       75.53       75.10       74.66    
        74.22       73.78       73.33       72.87       72.41       71.94       71.46       70.98       70.49       70.00    
  43  -1000.0     -1000.0     -1000.0       88.04       87.89       87.72       87.53       87.31       87.07       86.81    
        86.53       86.22       85.90       85.55       85.19       84.80       84.41       84.01       83.60       83.18    
        82.76       82.34       81.91       81.49       81.06       80.63       80.20       79.78       79.35       78.93    
        78.50       78.08       77.66       77.24       76.81       76.39       75.96       75.53       75.09       74.66    
        74.21       73.77       73.32       72.86       72.39       71.93       71.45       70.97       70.49       70.00    
  44  -1000.0     -1000.0     -1000.0     -1000.0       87.73       87.56       87.37       87.16       86.93       86.68    
        86.41       86.12       85.80       85.47       85.11       84.74       84.36       83.96       83.56       83.16    
        82.74       82.33       81.91       81.48       81.06       80.64       80.21       79.79       79.36       78.94    
        78.51       78.09       77.67       77.24       76.81       76.39       75.96       75.52       75.09       74.65    
        74.21       73.76       73.31       72.85       72.39       71.92       71.44       70.97       70.49       70.00    
  45  -1000.0     -1000.0     -1000.0     -1000.0     -1000.0       87.41       87.22       87.02       86.80       86.56    
        86.30       86.02       85.72       85.39       85.05       84.68       84.31       83.93       83.53       83.13    
        82.72       82.31       81.90       81.48       81.06       80.64       80.22       79.79       79.37       78.94    
        78.52       78.10       77.67       77.24       76.82       76.39       75.96       75.52       75.09       74.65    
        74.20       73.75       73.30       72.84       72.38       71.91       71.44       70.96       70.48       70.00    
  46  -1000.0     -1000.0     -1000.0     -1000.0     -1000.0     -1000.0       87.09       86.90       86.69       86.46    
        86.21       85.94       85.65       85.33       84.99       84.64       84.27       83.89       83.51       83.11    
        82.71       82.30       81.89       81.48       81.06       80.64       80.22       79.80       79.37       78.95    
        78.53       78.10       77.67       77.25       76.82       76.39       75.96       75.52       75.08       74.64    
        74.20       73.75       73.29       72.84       72.37       71.91       71.44       70.96       70.48       70.00    
  47  -1000.0     -1000.0     -1000.0     -1000.0     -1000.0     -1000.0     -1000.0       86.78       86.59       86.37    
        86.14       85.88       85.59       85.28       84.95       84.60       84.24       83.87       83.49       83.09    
        82.70       82.29       81.88       81.47       81.06       80.64       80.22       79.80       79.38       78.95    
        78.53       78.10       77.68       77.25       76.82       76.39       75.96       75.52       75.08       74.64    
        74.19       73.74       73.29       72.83       72.37       71.90       71.43       70.96       70.48       70.00    
  48  -1000.0     -1000.0     -1000.0     -1000.0     -1000.0     -1000.0     -1000.0     -1000.0       86.50       86.30    
        86.08       85.83       85.55       85.25       84.93       84.58       84.22       83.85       83.47       83.08    
        82.69       82.29       81.88       81.47       81.06       80.64       80.22       79.80       79.38       78.96    
        78.53       78.11       77.68       77.25       76.82       76.39       75.96       75.52       75.08       74.64    
        74.19       73.74       73.29       72.83       72.37       71.90       71.43       70.96       70.48       70.00    
  49  -1000.0     -1000.0     -1000.0     -1000.0     -1000.0     -1000.0     -1000.0     -1000.0     -1000.0       86.24    
        86.04       85.80       85.53       85.23       84.91       84.57       84.21       83.84       83.47       83.08    
        82.68       82.28       81.88       81.47       81.06       80.64       80.22       79.80       79.38       78.96    
        78.53       78.11       77.68       77.25       76.82       76.39       75.96       75.52       75.08       74.64    
        74.19       73.74       73.29       72.83       72.37       71.90       71.43       70.96       70.48       70.00    
  50  -1000.0     -1000.0     -1000.0     -1000.0     -1000.0     -1000.0     -1000.0     -1000.0     -1000.0     -1000.0    
      -1000.0     -1000.0     -1000.0     -1000.0     -1000.0     -1000.0     -1000.0     -1000.0     -1000.0     -1000.0    
      -1000.0     -1000.0     -1000.0     -1000.0     -1000.0     -1000.0     -1000.0     -1000.0     -1000.0     -1000.0    
      -1000.0     -1000.0     -1000.0     -1000.0     -1000.0     -1000.0     -1000.0     -1000.0     -1000.0     -1000.0    
      -1000.0     -1000.0     -1000.0     -1000.0     -1000.0     -1000.0     -1000.0     -1000.0     -1000.0       70.00    

 HEAD WILL BE SAVED ON UNIT   51 AT END OF TIME STEP    1, STRESS PERIOD    1

 DRAWDOWN WILL BE SAVED ON UNIT   52 AT END OF TIME STEP    1, STRESS PERIOD    1
1
  VOLUMETRIC BUDGET FOR ENTIRE MODEL AT END OF TIME STEP    1, STRESS PERIOD   1
  ------------------------------------------------------------------------------

     CUMULATIVE VOLUMES      L**3       RATES FOR THIS TIME STEP      L**3/T
     ------------------                 ------------------------

           IN:                                      IN:
           ---                                      ---
             STORAGE =           0.0000               STORAGE =           0.0000
       CONSTANT HEAD =           0.0000         CONSTANT HEAD =           0.0000
               WELLS =         375.0000                 WELLS =         375.0000
       RIVER LEAKAGE =      339039.2812         RIVER LEAKAGE =      339039.2812
                  ET =           0.0000                    ET =           0.0000
            RECHARGE =       33199.9961              RECHARGE =       33199.9961

            TOTAL IN =      372614.2812              TOTAL IN =      372614.2812

          OUT:                                     OUT:
          ----                                     ----
             STORAGE =           0.0000               STORAGE =           0.0000
       CONSTANT HEAD =      269017.2188         CONSTANT HEAD =      269017.2188
               WELLS =        7500.0000                 WELLS =        7500.0000
       RIVER LEAKAGE =       95652.0000         RIVER LEAKAGE =       95652.0000
                  ET =         444.9455                    ET =         444.9455
            RECHARGE =           0.0000              RECHARGE =           0.0000

           TOTAL OUT =      372614.1562             TOTAL OUT =      372614.1562

            IN - OUT =           0.1250              IN - OUT =           0.1250

 PERCENT DISCREPANCY =           0.00     PERCENT DISCREPANCY =           0.00






         TIME SUMMARY AT END OF TIME STEP    1 IN STRESS PERIOD    1
                    SECONDS     MINUTES      HOURS       DAYS        YEARS
                    -----------------------------------------------------------
   TIME STEP LENGTH  86400.      1440.0      24.000      1.0000     2.73785E-03
 STRESS PERIOD TIME  86400.      1440.0      24.000      1.0000     2.73785E-03
         TOTAL TIME  86400.      1440.0      24.000      1.0000     2.73785E-03
1

 Run end date and time (yyyy/mm/dd hh:mm:ss): 2026/02/25  7:16:58
 Elapsed run time: 15.759 Seconds

