                                  MODFLOW-2005     
      U.S. GEOLOGICAL SURVEY MODULAR FINITE-DIFFERENCE GROUND-WATER FLOW MODEL
                            VERSION 1.12.00 2/3/2017

 LIST FILE: static_ensemble_S1bc_1133113.list
                         UNIT    2

 OPENING static_ensemble_S1bc_1133113.dis
 FILE TYPE:DIS   UNIT   11   STATUS:OLD    
 FORMAT:FORMATTED              ACCESS:SEQUENTIAL          

 OPENING static_ensemble_S1bc_1133113.bas
 FILE TYPE:BAS6   UNIT   13   STATUS:OLD    
 FORMAT:FORMATTED              ACCESS:SEQUENTIAL          

 OPENING static_ensemble_S1bc_1133113.lpf
 FILE TYPE:LPF   UNIT   15   STATUS:OLD    
 FORMAT:FORMATTED              ACCESS:SEQUENTIAL          

 OPENING static_ensemble_S1bc_1133113.evt
 FILE TYPE:EVT   UNIT   22   STATUS:OLD    
 FORMAT:FORMATTED              ACCESS:SEQUENTIAL          

 OPENING static_ensemble_S1bc_1133113.rch
 FILE TYPE:RCH   UNIT   19   STATUS:OLD    
 FORMAT:FORMATTED              ACCESS:SEQUENTIAL          

 OPENING static_ensemble_S1bc_1133113.riv
 FILE TYPE:RIV   UNIT   18   STATUS:OLD    
 FORMAT:FORMATTED              ACCESS:SEQUENTIAL          

 OPENING static_ensemble_S1bc_1133113.wel
 FILE TYPE:WEL   UNIT   20   STATUS:OLD    
 FORMAT:FORMATTED              ACCESS:SEQUENTIAL          

 OPENING static_ensemble_S1bc_1133113.oc
 FILE TYPE:OC   UNIT   14   STATUS:OLD    
 FORMAT:FORMATTED              ACCESS:SEQUENTIAL          

 OPENING static_ensemble_S1bc_1133113.pcg
 FILE TYPE:PCG   UNIT   27   STATUS:OLD    
 FORMAT:FORMATTED              ACCESS:SEQUENTIAL          

 OPENING static_ensemble_S1bc_1133113.cbc
 FILE TYPE:DATA(BINARY)   UNIT   53   STATUS:REPLACE
 FORMAT:UNFORMATTED            ACCESS:STREAM              

 OPENING static_ensemble_S1bc_1133113.hds
 FILE TYPE:DATA(BINARY)   UNIT   51   STATUS:REPLACE
 FORMAT:UNFORMATTED            ACCESS:STREAM              

 OPENING static_ensemble_S1bc_1133113.ddn
 FILE TYPE:DATA(BINARY)   UNIT   52   STATUS:REPLACE
 FORMAT:UNFORMATTED            ACCESS:STREAM              

 BAS -- BASIC PACKAGE, VERSION 7, 5/2/2005 INPUT READ FROM UNIT   13
 
 MODFLOW was compiled using mixed precision
 Precision of REAL variables:           6
 Precision of DOUBLE PRECISION variables:          15

 DISCRETIZATION INPUT DATA READ FROM UNIT   11
 # DIS package for MODFLOW-2005 generated by Flopy 3.10.0
    3 LAYERS        50 ROWS        50 COLUMNS
    1 STRESS PERIOD(S) IN SIMULATION
 MODEL TIME UNIT IS DAYS
 MODEL LENGTH UNIT IS METERS
  Confining bed flag for each layer:
   0   0   0

                     DELR =   1000.00    

                     DELC =   1000.00    



           TOP ELEVATION OF LAYER 1
 READING ON UNIT   11 WITH FORMAT: (50E15.6)           



             MODEL LAYER BOTTOM EL. FOR LAYER   1
 READING ON UNIT   11 WITH FORMAT: (50E15.6)           



             MODEL LAYER BOTTOM EL. FOR LAYER   2
 READING ON UNIT   11 WITH FORMAT: (50E15.6)           



             MODEL LAYER BOTTOM EL. FOR LAYER   3
 READING ON UNIT   11 WITH FORMAT: (50E15.6)           


 STRESS PERIOD     LENGTH       TIME STEPS     MULTIPLIER FOR DELT    SS FLAG
 ----------------------------------------------------------------------------
        1         1.000000          1                    1.000         SS

 STEADY-STATE SIMULATION



 
 # BAS6 package for MODFLOW-2005 generated by Flopy 3.10.0                       
 THE FREE FORMAT OPTION HAS BEEN SELECTED



                     BOUNDARY ARRAY FOR LAYER   1
 READING ON UNIT   13 WITH FORMAT: (50I10)             



                     BOUNDARY ARRAY FOR LAYER   2
 READING ON UNIT   13 WITH FORMAT: (50I10)             



                     BOUNDARY ARRAY FOR LAYER   3
 READING ON UNIT   13 WITH FORMAT: (50I10)             

 AQUIFER HEAD WILL BE SET TO  -999.99     AT ALL NO-FLOW NODES (IBOUND=0).



                       INITIAL HEAD FOR LAYER   1
 READING ON UNIT   13 WITH FORMAT: (50E15.6)           



                       INITIAL HEAD FOR LAYER   2
 READING ON UNIT   13 WITH FORMAT: (50E15.6)           



                       INITIAL HEAD FOR LAYER   3
 READING ON UNIT   13 WITH FORMAT: (50E15.6)           
 # OC package for MODFLOW-2005 generated by Flopy 3.10.0

 OUTPUT CONTROL IS SPECIFIED ONLY AT TIME STEPS FOR WHICH OUTPUT IS DESIRED
 COMPACT CELL-BY-CELL BUDGET FILES WILL BE WRITTEN
 AUXILIARY DATA WILL BE SAVED IN CELL-BY-CELL BUDGET FILES
 HEAD PRINT FORMAT CODE IS   0    DRAWDOWN PRINT FORMAT CODE IS   0
 HEADS WILL BE SAVED ON UNIT   51    DRAWDOWNS WILL BE SAVED ON UNIT   52

 LPF -- LAYER-PROPERTY FLOW PACKAGE, VERSION 7, 5/2/2005
         INPUT READ FROM UNIT   15
 # LPF package for MODFLOW-2005 generated by Flopy 3.10.0
 CELL-BY-CELL FLOWS WILL BE SAVED ON UNIT   53
 HEAD AT CELLS THAT CONVERT TO DRY= -1.00000E+30
 No named parameters
 STORAGECOEFFICIENT OPTION:
 Read storage coefficient rather than specific storage

   LAYER FLAGS:
 LAYER       LAYTYP        LAYAVG         CHANI        LAYVKA        LAYWET
 ---------------------------------------------------------------------------
    1             1             0     1.000E+00             0             0
    2             1             0     1.000E+00             0             0
    3             1             0     1.000E+00             0             0

   INTERPRETATION OF LAYER FLAGS:
                        INTERBLOCK     HORIZONTAL    DATA IN
         LAYER TYPE   TRANSMISSIVITY   ANISOTROPY   ARRAY VKA   WETTABILITY
 LAYER      (LAYTYP)      (LAYAVG)       (CHANI)      (LAYVKA)      (LAYWET)
 ---------------------------------------------------------------------------
    1   CONVERTIBLE      HARMONIC     1.000E+00    VERTICAL K  NON-WETTABLE
    2   CONVERTIBLE      HARMONIC     1.000E+00    VERTICAL K  NON-WETTABLE
    3   CONVERTIBLE      HARMONIC     1.000E+00    VERTICAL K  NON-WETTABLE

 WETTING CAPABILITY IS NOT ACTIVE IN ANY LAYER



              HYD. COND. ALONG ROWS FOR LAYER   1
 READING ON UNIT   15 WITH FORMAT: (50E15.6)           



                VERTICAL HYD. COND. FOR LAYER   1
 READING ON UNIT   15 WITH FORMAT: (50E15.6)           



              HYD. COND. ALONG ROWS FOR LAYER   2
 READING ON UNIT   15 WITH FORMAT: (50E15.6)           



                VERTICAL HYD. COND. FOR LAYER   2
 READING ON UNIT   15 WITH FORMAT: (50E15.6)           



              HYD. COND. ALONG ROWS FOR LAYER   3
 READING ON UNIT   15 WITH FORMAT: (50E15.6)           



                VERTICAL HYD. COND. FOR LAYER   3
 READING ON UNIT   15 WITH FORMAT: (50E15.6)           

 WEL -- WELL PACKAGE, VERSION 7, 5/2/2005 INPUT READ FROM UNIT   20
 # WEL package for MODFLOW-2005 generated by Flopy 3.10.0
 No named parameters
 MAXIMUM OF      3 ACTIVE WELLS AT ONE TIME


     0 Well parameters

 RIV -- RIVER PACKAGE, VERSION 7, 5/2/2005 INPUT READ FROM UNIT   18
 # RIV package for MODFLOW-2005 generated by Flopy 3.10.0
 No named parameters
 MAXIMUM OF     49 ACTIVE RIVER REACHES AT ONE TIME
 CELL-BY-CELL FLOWS WILL BE SAVED ON UNIT   53


     0 River parameters

 EVT -- EVAPOTRANSPIRATION PACKAGE, VERSION 7, 5/2/2005
         INPUT READ FROM UNIT   22
 # EVT package for MODFLOW-2005 generated by Flopy 3.10.0
 No named parameters
 OPTION 3 -- EVAPOTRANSPIRATION FROM HIGHEST ACTIVE NODE IN EACH VERTICAL COLUMN
 CELL-BY-CELL FLOWS WILL BE SAVED ON UNIT   53


     0 Evapotranspiration parameters

 RCH -- RECHARGE PACKAGE, VERSION 7, 5/2/2005 INPUT READ FROM UNIT   19
 # RCH package for MODFLOW-2005 generated by Flopy 3.10.0
 No named parameters
 OPTION 3 -- RECHARGE TO HIGHEST ACTIVE NODE IN EACH VERTICAL COLUMN
 CELL-BY-CELL FLOWS WILL BE SAVED ON UNIT   53


     0 Recharge parameters

 PCG -- CONJUGATE-GRADIENT SOLUTION PACKAGE, VERSION 7, 5/2/2005
 # PCG package for MODFLOW-2005 generated by Flopy 3.10.0
 MAXIMUM OF   5000 CALLS OF SOLUTION ROUTINE
 MAXIMUM OF    500 INTERNAL ITERATIONS PER CALL TO SOLUTION ROUTINE
 MATRIX PRECONDITIONING TYPE :    1



                                    SOLUTION BY THE CONJUGATE-GRADIENT METHOD
                                   -------------------------------------------
                    MAXIMUM NUMBER OF CALLS TO PCG ROUTINE =     5000
                        MAXIMUM ITERATIONS PER CALL TO PCG =      500
                               MATRIX PRECONDITIONING TYPE =        1
        RELAXATION FACTOR (ONLY USED WITH PRECOND. TYPE 1) =    0.97000E+00
 PARAMETER OF POLYNOMIAL PRECOND. = 2 (2) OR IS CALCULATED :        0
                         HEAD CHANGE CRITERION FOR CLOSURE =    0.10000E-04
                     RESIDUAL CHANGE CRITERION FOR CLOSURE =    0.10000E-04
            PCG HEAD AND RESIDUAL CHANGE PRINTOUT INTERVAL =      999
     PRINTING FROM SOLVER IS LIMITED(1) OR SUPPRESSED (>1) =        3
                            STEADY-STATE DAMPING PARAMETER =    0.10000E-01
                               TRANSIENT DAMPING PARAMETER =    0.10000E-01
1
                            STRESS PERIOD NO.    1, LENGTH =   1.000000    
                            -----------------------------------------------

                              NUMBER OF TIME STEPS =     1

                               MULTIPLIER FOR DELT =     1.000

                            INITIAL TIME STEP SIZE =   1.000000    

 WELL NO.  LAYER   ROW   COL   STRESS RATE         
 --------------------------------------------------
      1      3     22     39      -1500.    
      2      1     13     15      -4500.    
      3      1     25     26       375.0    

      3 WELLS

 REACH NO.  LAYER   ROW   COL     STAGE      CONDUCTANCE     BOTTOM EL.         
 -------------------------------------------------------------------------------
      1      1     25      2       100.5           5000.           98.00    
      2      1     25      3       99.50           5000.           97.00    
      3      1     25      4       98.50           5000.           96.00    
      4      1     25      5       97.50           5000.           95.00    
      5      1     25      6       96.50           5000.           94.00    
      6      1     25      7       95.50           5000.           93.00    
      7      1     25      8       94.50           5000.           92.00    
      8      1     25      9       93.50           5000.           91.00    
      9      1     25     10       92.50           5000.           90.00    
     10      1     25     11       91.50           5000.           89.00    
     11      1     25     12       90.50           5000.           88.00    
     12      1     25     13       89.50           5000.           87.00    
     13      1     25     14       88.50           5000.           86.00    
     14      1     25     15       87.50           5000.           85.00    
     15      1     25     16       86.50           5000.           84.00    
     16      1     25     17       85.50           5000.           83.00    
     17      1     25     18       84.50           5000.           82.00    
     18      1     25     19       83.50           5000.           81.00    
     19      1     25     20       82.50           5000.           80.00    
     20      1     25     21       81.50           5000.           79.00    
     21      1     25     22       80.50           5000.           78.00    
     22      1     25     23       79.50           5000.           77.00    
     23      1     25     24       78.50           5000.           76.00    
     24      1     25     25       77.50           5000.           75.00    
     25      1     25     26       77.40           5000.           74.90    
     26      1     25     27       77.30           5000.           74.80    
     27      1     25     28       77.20           5000.           74.70    
     28      1     25     29       77.10           5000.           74.60    
     29      1     25     30       77.00           5000.           74.50    
     30      1     25     31       76.90           5000.           74.40    
     31      1     25     32       76.80           5000.           74.30    
     32      1     25     33       76.70           5000.           74.20    
     33      1     25     34       76.60           5000.           74.10    
     34      1     25     35       76.50           5000.           74.00    
     35      1     25     36       76.40           5000.           73.90    
     36      1     25     37       76.30           5000.           73.80    
     37      1     25     38       76.20           5000.           73.70    
     38      1     25     39       76.10           5000.           73.60    
     39      1     25     40       76.00           5000.           73.50    
     40      1     25     41       75.90           5000.           73.40    
     41      1     25     42       75.80           5000.           73.30    
     42      1     25     43       75.70           5000.           73.20    
     43      1     25     44       75.60           5000.           73.10    
     44      1     25     45       75.50           5000.           73.00    
     45      1     25     46       75.40           5000.           72.90    
     46      1     25     47       75.30           5000.           72.80    
     47      1     25     48       75.20           5000.           72.70    
     48      1     25     49       75.10           5000.           72.60    
     49      1     25     50       75.00           5000.           72.50    

     49 RIVER REACHES



                         ET SURFACE
 READING ON UNIT   22 WITH FORMAT: (50E15.6)           



            EVAPOTRANSPIRATION RATE
 READING ON UNIT   22 WITH FORMAT: (50E15.6)           

         EXTINCTION DEPTH =   10.0000    



                           RECHARGE
 READING ON UNIT   19 WITH FORMAT: (50E15.6)           
 
 SOLVING FOR HEAD 

 OUTPUT CONTROL FOR STRESS PERIOD    1   TIME STEP    1
    SAVE HEAD FOR ALL LAYERS
    SAVE DRAWDOWN FOR ALL LAYERS
    SAVE BUDGET
    PRINT HEAD FOR ALL LAYERS
    PRINT BUDGET
 UBDSV2 SAVING "   CONSTANT HEAD" ON UNIT  53 AT TIME STEP  1, STRESS PERIOD   1
 UBDSV1 SAVING "FLOW RIGHT FACE " ON UNIT  53 AT TIME STEP  1, STRESS PERIOD   1
 UBDSV1 SAVING "FLOW FRONT FACE " ON UNIT  53 AT TIME STEP  1, STRESS PERIOD   1
 UBDSV1 SAVING "FLOW LOWER FACE " ON UNIT  53 AT TIME STEP  1, STRESS PERIOD   1
 UBDSV4 SAVING "   RIVER LEAKAGE" ON UNIT  53 AT TIME STEP  1, STRESS PERIOD   1
 UBDSV3 SAVING "              ET" ON UNIT  53 AT TIME STEP  1, STRESS PERIOD   1
 UBDSV3 SAVING "        RECHARGE" ON UNIT  53 AT TIME STEP  1, STRESS PERIOD   1
1
              HEAD IN LAYER   1 AT END OF TIME STEP   1 IN STRESS PERIOD    1
  ---------------------------------------------------------------------------

            1           2           3           4           5           6           7           8           9          10
           11          12          13          14          15          16          17          18          19          20
           21          22          23          24          25          26          27          28          29          30
           31          32          33          34          35          36          37          38          39          40
           41          42          43          44          45          46          47          48          49          50
 ........................................................................................................................
   1    70.00       71.71       73.25       74.62       75.82       76.87       77.77       78.52       79.13       79.61    
        79.96       80.18       80.28       80.25       80.11       79.84       79.58       79.33       79.08       78.83    
        78.60       78.37       78.14       77.90       77.66       77.42       77.17       76.91       76.65       76.39    
        76.12       75.84       75.56       75.27       74.98       74.68       74.38       74.07       73.76       73.44    
        73.12       72.79       72.46       72.12       71.78       71.44       71.08       70.73       70.37       70.00    
   2    70.00       71.72       73.25       74.62       75.83       76.88       77.77       78.53       79.14       79.62    
        79.96       80.18       80.27       80.25       80.10       79.83       79.58       79.32       79.07       78.83    
        78.60       78.37       78.14       77.90       77.67       77.42       77.17       76.92       76.66       76.39    
        76.12       75.84       75.56       75.27       74.98       74.68       74.38       74.07       73.76       73.44    
        73.12       72.79       72.46       72.13       71.78       71.44       71.09       70.73       70.37       70.00    
   3    70.00       71.72       73.26       74.63       75.84       76.89       77.79       78.54       79.15       79.62    
        79.96       80.18       80.27       80.24       80.09       79.82       79.56       79.31       79.07       78.82    
        78.60       78.37       78.14       77.91       77.67       77.43       77.18       76.93       76.67       76.40    
        76.13       75.85       75.57       75.28       74.99       74.69       74.39       74.08       73.77       73.45    
        73.13       72.80       72.47       72.13       71.79       71.44       71.09       70.73       70.37       70.00    
   4    70.00       71.73       73.28       74.65       75.86       76.92       77.81       78.56       79.17       79.63    
        79.97       80.17       80.26       80.22       80.07       79.80       79.54       79.30       79.05       78.82    
        78.60       78.38       78.15       77.92       77.69       77.44       77.20       76.94       76.68       76.42    
        76.14       75.87       75.58       75.30       75.00       74.70       74.40       74.09       73.78       73.46    
        73.14       72.81       72.48       72.14       71.80       71.45       71.09       70.73       70.37       70.00    
   5    70.00       71.74       73.30       74.68       75.90       76.95       77.85       78.59       79.19       79.65    
        79.97       80.17       80.24       80.19       80.03       79.77       79.51       79.27       79.04       78.81    
        78.60       78.38       78.16       77.94       77.70       77.46       77.22       76.96       76.70       76.44    
        76.16       75.89       75.60       75.31       75.02       74.72       74.42       74.11       73.80       73.48    
        73.15       72.82       72.49       72.15       71.81       71.46       71.10       70.74       70.37       70.00    
   6    70.00       71.75       73.32       74.72       75.94       77.00       77.90       78.64       79.23       79.68    
        79.98       80.16       80.21       80.15       79.99       79.72       79.47       79.24       79.02       78.80    
        78.60       78.39       78.18       77.96       77.73       77.49       77.24       76.99       76.73       76.46    
        76.19       75.91       75.63       75.34       75.04       74.74       74.44       74.13       73.82       73.50    
        73.17       72.84       72.51       72.17       71.82       71.47       71.11       70.74       70.38       70.00    
   7    70.00       71.77       73.36       74.77       76.00       77.07       77.97       78.70       79.28       79.71    
        80.00       80.15       80.18       80.09       79.92       79.65       79.41       79.20       78.99       78.79    
        78.60       78.41       78.20       77.98       77.76       77.52       77.28       77.02       76.76       76.49    
        76.22       75.94       75.65       75.36       75.07       74.77       74.46       74.16       73.84       73.52    
        73.19       72.86       72.53       72.18       71.84       71.48       71.12       70.75       70.38       70.00    
   8    70.00       71.80       73.41       74.84       76.09       77.16       78.06       78.79       79.36       79.77    
        80.02       80.13       80.12       80.01       79.81       79.55       79.33       79.14       78.97       78.79    
        78.62       78.43       78.23       78.02       77.80       77.56       77.32       77.06       76.80       76.53    
        76.26       75.97       75.69       75.40       75.10       74.80       74.50       74.19       73.87       73.55    
        73.22       72.89       72.55       72.21       71.86       71.50       71.13       70.76       70.38       70.00    
   9    70.00       71.83       73.47       74.93       76.20       77.28       78.19       78.91       79.47       79.85    
        80.06       80.12       80.05       79.88       79.65       79.40       79.22       79.08       78.94       78.79    
        78.64       78.47       78.28       78.07       77.85       77.61       77.37       77.11       76.84       76.57    
        76.30       76.01       75.73       75.43       75.14       74.84       74.53       74.22       73.90       73.58    
        73.26       72.92       72.58       72.23       71.88       71.52       71.15       70.77       70.39       70.00    
  10    70.00       71.88       73.56       75.04       76.34       77.44       78.36       79.08       79.61       79.96    
        80.13       80.12       79.95       79.67       79.38       79.17       79.07       79.00       78.92       78.81    
        78.68       78.53       78.34       78.14       77.91       77.67       77.42       77.16       76.90       76.62    
        76.34       76.06       75.77       75.48       75.18       74.88       74.57       74.26       73.95       73.62    
        73.30       72.96       72.62       72.27       71.91       71.54       71.17       70.79       70.40       70.00    
  11    70.00       71.93       73.66       75.19       76.52       77.65       78.58       79.30       79.82       80.14    
        80.24       80.14       79.83       79.36       78.91       78.83       78.90       78.95       78.94       78.87    
        78.76       78.61       78.43       78.22       77.99       77.75       77.49       77.23       76.95       76.68    
        76.39       76.11       75.82       75.52       75.23       74.92       74.62       74.31       73.99       73.67    
        73.34       73.01       72.66       72.31       71.95       71.58       71.19       70.80       70.41       70.00    
  12    70.00       72.00       73.80       75.38       76.76       77.92       78.86       79.59       80.10       80.39    
        80.45       80.24       79.74       78.91       77.92       78.34       78.73       78.95       79.01       78.97    
        78.87       78.72       78.54       78.32       78.08       77.83       77.57       77.29       77.02       76.73    
        76.45       76.16       75.87       75.57       75.28       74.98       74.67       74.36       74.05       73.73    
        73.40       73.06       72.71       72.36       71.99       71.61       71.23       70.83       70.42       70.00    
  13    70.00       72.09       73.97       75.62       77.05       78.25       79.22       79.97       80.48       80.76    
        80.79       80.52       79.85       78.49       75.31       77.87       78.76       79.10       79.19       79.15    
        79.04       78.88       78.67       78.44       78.19       77.92       77.65       77.37       77.08       76.79    
        76.50       76.21       75.92       75.63       75.33       75.03       74.73       74.42       74.11       73.79    
        73.46       73.12       72.78       72.42       72.05       71.66       71.26       70.85       70.43       70.00    
  14    70.00       72.21       74.18       75.92       77.42       78.67       79.68       80.44       80.97       81.25    
        81.29       81.06       80.52       79.66       78.62       78.99       79.33       79.49       79.50       79.41    
        79.27       79.07       78.84       78.58       78.31       78.02       77.73       77.44       77.15       76.86    
        76.56       76.27       75.98       75.69       75.39       75.10       74.80       74.49       74.18       73.86    
        73.54       73.20       72.85       72.49       72.11       71.72       71.31       70.89       70.45       70.00    
  15    70.00       72.35       74.46       76.30       77.88       79.19       80.23       81.02       81.56       81.87    
        81.93       81.77       81.39       80.84       80.29       80.11       80.07       80.02       79.91       79.74    
        79.54       79.29       79.02       78.73       78.43       78.13       77.82       77.52       77.22       76.92    
        76.62       76.33       76.04       75.75       75.46       75.16       74.87       74.57       74.26       73.95    
        73.63       73.29       72.94       72.58       72.19       71.79       71.37       70.93       70.47       70.00    
  16    70.00       72.54       74.80       76.77       78.44       79.82       80.90       81.72       82.27       82.59    
        82.68       82.57       82.28       81.87       81.44       81.08       80.83       80.61       80.38       80.12    
        79.85       79.54       79.22       78.89       78.56       78.23       77.91       77.59       77.28       76.98    
        76.68       76.39       76.10       75.81       75.53       75.24       74.95       74.66       74.36       74.05    
        73.73       73.40       73.05       72.68       72.30       71.88       71.45       70.98       70.50       70.00    
  17    70.00       72.77       75.24       77.36       79.14       80.58       81.71       82.53       83.09       83.40    
        83.50       83.41       83.16       82.80       82.38       81.93       81.55       81.21       80.87       80.53    
        80.17       79.80       79.43       79.06       78.69       78.33       77.99       77.66       77.34       77.03    
        76.74       76.45       76.16       75.88       75.60       75.32       75.04       74.75       74.46       74.16    
        73.85       73.53       73.18       72.82       72.42       72.00       71.54       71.06       70.54       70.00    
  18    70.00       73.08       75.80       78.11       80.01       81.52       82.66       83.48       84.02       84.31    
        84.38       84.28       84.03       83.66       83.21       82.69       82.22       81.79       81.37       80.94    
        80.51       80.07       79.63       79.21       78.80       78.41       78.05       77.71       77.39       77.08    
        76.78       76.50       76.22       75.95       75.68       75.41       75.14       74.87       74.59       74.30    
        74.00       73.68       73.34       72.98       72.58       72.15       71.67       71.15       70.59       70.00    
  19    70.00       73.51       76.55       79.09       81.11       82.65       83.79       84.57       85.06       85.29    
        85.32       85.17       84.88       84.47       83.97       83.39       82.85       82.35       81.86       81.37    
        80.84       80.31       79.81       79.33       78.89       78.47       78.09       77.74       77.42       77.11    
        76.83       76.55       76.28       76.02       75.77       75.51       75.25       74.99       74.73       74.45    
        74.17       73.86       73.54       73.18       72.78       72.34       71.84       71.28       70.66       70.00    
  20    70.00       74.10       77.57       80.36       82.49       84.04       85.12       85.82       86.22       86.36    
        86.30       86.08       85.72       85.25       84.69       84.04       83.44       82.89       82.36       81.80    
        81.15       80.53       79.95       79.42       78.93       78.49       78.10       77.75       77.43       77.14    
        76.86       76.60       76.35       76.10       75.86       75.62       75.38       75.14       74.89       74.63    
        74.36       74.08       73.77       73.42       73.03       72.59       72.06       71.46       70.76       70.00    
  21    70.00       74.96       79.01       82.06       84.24       85.73       86.69       87.24       87.49       87.50    
        87.32       86.99       86.54       85.99       85.36       84.64       83.98       83.39       82.90       82.27    
        81.44       80.70       80.04       79.45       78.92       78.47       78.07       77.73       77.42       77.14    
        76.88       76.64       76.41       76.18       75.96       75.74       75.52       75.30       75.07       74.84    
        74.60       74.33       74.05       73.72       73.35       72.91       72.37       71.72       70.92       70.00    
  22    70.00       76.32       81.10       84.38       86.48       87.78       88.50       88.83       88.87       88.70    
        88.36       87.90       87.34       86.70       85.97       85.18       84.44       83.77       83.22       82.52    
        81.60       80.78       80.05       79.40       78.84       78.37       77.99       77.66       77.38       77.13    
        76.90       76.68       76.47       76.27       76.07       75.88       75.68       75.48       75.28       75.08    
        74.86       74.63       74.38       74.09       73.75       73.33       72.80       72.10       71.17       70.00    
  23    70.00       78.60       84.29       87.55       89.32       90.20       90.55       90.55       90.32       89.92    
        89.40       88.79       88.10       87.35       86.53       85.66       84.83       84.05       83.30       82.53    
        81.63       80.77       79.97       79.25       78.64       78.19       77.84       77.56       77.31       77.10    
        76.90       76.72       76.54       76.37       76.20       76.03       75.86       75.69       75.52       75.35    
        75.17       74.97       74.76       74.52       74.23       73.88       73.40       72.71       71.64       70.00    
  24    70.00       82.79       89.31       91.86       92.79       92.98       92.79       92.37       91.80       91.14    
        90.41       89.63       88.80       87.94       87.03       86.08       85.17       84.28       83.41       82.56    
        81.60       80.68       79.79       78.97       78.28       77.90       77.62       77.40       77.22       77.06    
        76.90       76.76       76.61       76.47       76.34       76.20       76.06       75.93       75.79       75.65    
        75.50       75.35       75.19       75.01       74.81       74.56       74.21       73.66       72.59       70.00    
  25    70.00       91.22       97.42       97.41       96.75       95.95       95.09       94.18       93.26       92.31    
        91.36       90.39       89.42       88.44       87.45       86.45       85.47       84.48       83.50       82.53    
        81.51       80.52       79.52       78.54       77.58       77.50       77.33       77.22       77.11       77.01    
        76.90       76.80       76.70       76.59       76.49       76.39       76.29       76.19       76.08       75.98    
        75.88       75.77       75.67       75.57       75.46       75.35       75.24       75.11       74.85       70.00    
  26    70.00       82.81       89.35       91.92       92.87       93.07       92.90       92.50       91.95       91.31    
        90.60       89.83       89.01       88.15       87.24       86.28       85.34       84.42       83.53       82.67    
        81.72       80.81       79.94       79.12       78.42       78.04       77.75       77.53       77.34       77.17    
        77.01       76.85       76.70       76.56       76.41       76.27       76.13       75.99       75.84       75.70    
        75.55       75.39       75.22       75.04       74.83       74.57       74.22       73.67       72.59       70.00    
  27    70.00       78.64       84.37       87.67       89.47       90.40       90.78       90.82       90.62       90.26    
        89.78       89.19       88.52       87.77       86.96       86.06       85.19       84.34       83.52       82.73    
        81.87       81.04       80.26       79.55       78.93       78.47       78.10       77.80       77.55       77.32    
        77.11       76.91       76.72       76.53       76.35       76.17       75.99       75.82       75.63       75.45    
        75.25       75.05       74.82       74.57       74.28       73.91       73.42       72.72       71.64       70.00    
  28    70.00       76.39       81.23       84.56       86.72       88.07       88.85       89.24       89.33       89.22    
        88.94       88.52       87.99       87.36       86.63       85.81       85.01       84.22       83.46       82.73    
        81.95       81.20       80.50       79.85       79.27       78.79       78.38       78.03       77.73       77.45    
        77.20       76.96       76.74       76.52       76.30       76.09       75.88       75.67       75.45       75.23    
        75.00       74.75       74.48       74.17       73.82       73.39       72.84       72.13       71.19       70.00    
  29    70.00       75.06       79.18       82.31       84.57       86.14       87.17       87.80       88.13       88.22    
        88.11       87.84       87.44       86.92       86.28       85.54       84.80       84.08       83.38       82.69    
        81.99       81.30       80.66       80.06       79.51       79.02       78.59       78.22       77.88       77.57    
        77.28       77.01       76.76       76.51       76.27       76.03       75.79       75.55       75.30       75.05    
        74.78       74.50       74.19       73.84       73.45       72.99       72.43       71.75       70.94       70.00    
  30    70.00       74.21       77.79       80.68       82.90       84.56       85.74       86.54       87.04       87.28    
        87.32       87.18       86.89       86.47       85.92       85.24       84.58       83.91       83.26       82.63    
        81.98       81.35       80.75       80.19       79.67       79.18       78.75       78.36       78.00       77.67    
        77.35       77.06       76.78       76.50       76.24       75.97       75.71       75.44       75.17       74.89    
        74.59       74.28       73.94       73.57       73.16       72.68       72.14       71.51       70.79       70.00    
  31    70.00       73.64       76.82       79.47       81.61       83.28       84.54       85.45       86.06       86.43    
        86.58       86.55       86.36       86.02       85.55       84.94       84.34       83.73       83.13       82.54    
        81.94       81.36       80.80       80.27       79.77       79.30       78.87       78.46       78.09       77.74    
        77.41       77.10       76.80       76.50       76.21       75.93       75.64       75.35       75.06       74.75    
        74.44       74.10       73.74       73.36       72.93       72.46       71.93       71.34       70.69       70.00    
  32    70.00       73.24       76.11       78.56       80.60       82.25       83.54       84.52       85.21       85.67    
        85.91       85.97       85.86       85.59       85.19       84.64       84.09       83.54       82.98       82.43    
        81.88       81.34       80.82       80.32       79.83       79.38       78.95       78.54       78.16       77.80    
        77.46       77.13       76.81       76.50       76.19       75.89       75.58       75.28       74.96       74.64    
        74.31       73.96       73.58       73.19       72.75       72.29       71.78       71.22       70.63       70.00    
  33    70.00       72.95       75.58       77.87       79.81       81.42       82.71       83.72       84.47       84.99    
        85.30       85.43       85.39       85.18       84.84       84.35       83.85       83.34       82.82       82.31    
        81.80       81.30       80.81       80.33       79.87       79.42       79.00       78.60       78.22       77.85    
        77.50       77.15       76.82       76.50       76.18       75.86       75.54       75.21       74.88       74.55    
        74.20       73.84       73.45       73.05       72.62       72.16       71.66       71.14       70.58       70.00    
  34    70.00       72.73       75.18       77.33       79.19       80.75       82.03       83.05       83.84       84.40    
        84.76       84.94       84.95       84.80       84.51       84.07       83.61       83.14       82.66       82.18    
        81.71       81.24       80.78       80.32       79.88       79.45       79.03       78.63       78.25       77.88    
        77.52       77.17       76.83       76.49       76.16       75.83       75.50       75.16       74.82       74.47    
        74.11       73.74       73.35       72.94       72.51       72.06       71.58       71.07       70.55       70.00    
  35    70.00       72.56       74.87       76.91       78.68       80.20       81.46       82.49       83.29       83.88    
        84.28       84.50       84.56       84.45       84.20       83.80       83.38       82.94       82.50       82.05    
        81.61       81.17       80.73       80.30       79.87       79.45       79.05       78.65       78.27       77.90    
        77.54       77.18       76.83       76.49       76.15       75.80       75.46       75.12       74.77       74.41    
        74.04       73.66       73.27       72.86       72.43       71.98       71.52       71.03       70.52       70.00    
  36    70.00       72.43       74.62       76.57       78.28       79.75       80.99       82.01       82.82       83.43    
        83.86       84.11       84.20       84.13       83.91       83.54       83.16       82.76       82.34       81.92    
        81.51       81.09       80.68       80.26       79.85       79.45       79.05       78.66       78.28       77.91    
        77.55       77.19       76.83       76.48       76.13       75.78       75.43       75.08       74.72       74.36    
        73.98       73.60       73.20       72.79       72.37       71.93       71.47       70.99       70.50       70.00    
  37    70.00       72.33       74.43       76.30       77.95       79.38       80.60       81.60       82.42       83.04    
        83.49       83.76       83.88       83.84       83.65       83.31       82.95       82.58       82.19       81.79    
        81.41       81.01       80.61       80.22       79.82       79.43       79.04       78.66       78.28       77.91    
        77.55       77.19       76.83       76.47       76.12       75.76       75.41       75.05       74.68       74.31    
        73.93       73.55       73.15       72.74       72.32       71.88       71.43       70.96       70.49       70.00    
  38    70.00       72.24       74.27       76.08       77.68       79.07       80.27       81.26       82.08       82.71    
        83.16       83.46       83.59       83.57       83.41       83.09       82.76       82.41       82.04       81.67    
        81.30       80.93       80.55       80.17       79.79       79.40       79.03       78.65       78.28       77.91    
        77.55       77.18       76.82       76.47       76.11       75.75       75.39       75.02       74.65       74.28    
        73.89       73.50       73.11       72.70       72.28       71.84       71.40       70.94       70.48       70.00    
  39    70.00       72.18       74.14       75.90       77.46       78.82       79.99       80.98       81.78       82.42    
        82.88       83.19       83.34       83.34       83.19       82.90       82.58       82.25       81.91       81.55    
        81.20       80.85       80.48       80.11       79.75       79.37       79.00       78.64       78.27       77.90    
        77.54       77.18       76.82       76.46       76.09       75.73       75.37       75.00       74.62       74.25    
        73.86       73.47       73.07       72.66       72.24       71.81       71.38       70.93       70.47       70.00    
  40    70.00       72.12       74.04       75.75       77.27       78.61       79.76       80.73       81.53       82.17    
        82.64       82.95       83.12       83.13       83.00       82.72       82.42       82.11       81.78       81.44    
        81.11       80.77       80.42       80.06       79.70       79.34       78.98       78.62       78.25       77.89    
        77.53       77.17       76.81       76.44       76.08       75.71       75.35       74.98       74.60       74.22    
        73.83       73.44       73.04       72.63       72.22       71.79       71.36       70.91       70.46       70.00    
  41    70.00       72.08       73.95       75.63       77.12       78.43       79.57       80.53       81.32       81.96    
        82.43       82.75       82.92       82.95       82.82       82.56       82.28       81.98       81.67       81.34    
        81.02       80.69       80.35       80.01       79.66       79.31       78.95       78.59       78.24       77.88    
        77.52       77.16       76.79       76.43       76.07       75.70       75.33       74.96       74.58       74.20    
        73.81       73.42       73.02       72.61       72.20       71.77       71.34       70.90       70.46       70.00    
  42    70.00       72.04       73.88       75.53       76.99       78.29       79.40       80.36       81.14       81.77    
        82.25       82.58       82.75       82.79       82.67       82.42       82.15       81.86       81.56       81.25    
        80.94       80.62       80.29       79.96       79.62       79.27       78.92       78.57       78.22       77.86    
        77.50       77.14       76.78       76.42       76.05       75.69       75.32       74.94       74.56       74.18    
        73.79       73.40       73.00       72.59       72.18       71.76       71.33       70.90       70.45       70.00    
  43    70.00       72.01       73.82       75.44       76.89       78.16       79.27       80.21       80.99       81.62    
        82.10       82.43       82.61       82.65       82.54       82.30       82.04       81.76       81.47       81.16    
        80.86       80.56       80.24       79.91       79.58       79.24       78.90       78.55       78.20       77.84    
        77.49       77.13       76.77       76.41       76.04       75.67       75.30       74.93       74.55       74.17    
        73.78       73.38       72.98       72.58       72.17       71.75       71.32       70.89       70.45       70.00    
  44    70.00       71.98       73.77       75.38       76.81       78.06       79.16       80.09       80.87       81.49    
        81.97       82.30       82.48       82.53       82.43       82.19       81.94       81.67       81.39       81.09    
        80.80       80.50       80.19       79.87       79.54       79.21       78.87       78.53       78.18       77.83    
        77.48       77.12       76.76       76.40       76.03       75.66       75.29       74.92       74.54       74.15    
        73.76       73.37       72.97       72.57       72.16       71.74       71.32       70.88       70.45       70.00    
  45    70.00       71.96       73.73       75.32       76.74       77.98       79.07       79.99       80.77       81.39    
        81.86       82.19       82.38       82.43       82.34       82.11       81.86       81.59       81.32       81.03    
        80.74       80.45       80.14       79.83       79.51       79.18       78.85       78.51       78.16       77.81    
        77.46       77.11       76.75       76.39       76.02       75.65       75.28       74.91       74.53       74.14    
        73.75       73.36       72.96       72.56       72.15       71.73       71.31       70.88       70.44       70.00    
  46    70.00       71.95       73.70       75.28       76.68       77.92       78.99       79.91       80.68       81.30    
        81.78       82.11       82.30       82.35       82.26       82.03       81.79       81.53       81.26       80.97    
        80.70       80.41       80.11       79.80       79.48       79.16       78.82       78.49       78.15       77.80    
        77.45       77.10       76.74       76.38       76.01       75.65       75.27       74.90       74.52       74.13    
        73.75       73.35       72.95       72.55       72.14       71.73       71.31       70.88       70.44       70.00    
  47    70.00       71.93       73.68       75.25       76.64       77.87       78.94       79.85       80.62       81.24    
        81.71       82.04       82.23       82.28       82.20       81.97       81.73       81.48       81.21       80.93    
        80.66       80.37       80.08       79.77       79.46       79.14       78.81       78.47       78.13       77.79    
        77.44       77.09       76.73       76.37       76.01       75.64       75.27       74.89       74.51       74.13    
        73.74       73.35       72.95       72.55       72.14       71.72       71.30       70.87       70.44       70.00    
  48    70.00       71.93       73.66       75.22       76.61       77.83       78.90       79.81       80.57       81.19    
        81.66       81.99       82.18       82.24       82.15       81.93       81.69       81.44       81.18       80.90    
        80.63       80.35       80.05       79.75       79.44       79.12       78.79       78.46       78.12       77.78    
        77.43       77.08       76.73       76.37       76.00       75.63       75.26       74.89       74.51       74.12    
        73.74       73.34       72.94       72.54       72.13       71.72       71.30       70.87       70.44       70.00    
  49    70.00       71.92       73.65       75.20       76.59       77.81       78.87       79.78       80.54       81.16    
        81.63       81.96       82.15       82.21       82.12       81.90       81.67       81.42       81.16       80.88    
        80.61       80.33       80.04       79.74       79.43       79.11       78.79       78.45       78.12       77.78    
        77.43       77.08       76.72       76.36       76.00       75.63       75.26       74.88       74.50       74.12    
        73.73       73.34       72.94       72.54       72.13       71.72       71.30       70.87       70.44       70.00    
  50    70.00       71.92       73.65       75.20       76.58       77.80       78.86       79.77       80.53       81.14    
        81.61       81.94       82.14       82.19       82.11       81.89       81.65       81.41       81.14       80.87    
        80.60       80.32       80.03       79.73       79.42       79.10       78.78       78.45       78.11       77.77    
        77.43       77.08       76.72       76.36       76.00       75.63       75.26       74.88       74.50       74.12    
        73.73       73.34       72.94       72.54       72.13       71.72       71.30       70.87       70.44       70.00    
1
              HEAD IN LAYER   2 AT END OF TIME STEP   1 IN STRESS PERIOD    1
  ---------------------------------------------------------------------------

            1           2           3           4           5           6           7           8           9          10
           11          12          13          14          15          16          17          18          19          20
           21          22          23          24          25          26          27          28          29          30
           31          32          33          34          35          36          37          38          39          40
           41          42          43          44          45          46          47          48          49          50
 ........................................................................................................................
   1    70.00       71.71       73.25       74.62       75.82       76.87       77.77       78.52       79.13       79.61    
        79.96       80.18       80.28       80.25       80.11       79.84       79.58       79.33       79.08       78.83    
        78.58       78.34       78.09       77.84       77.59       77.33       77.07       76.80       76.53       76.25    
        75.97       75.69       75.40       75.10       74.81       74.50       74.20       73.89       73.58       73.27    
        72.95       72.63       72.31       71.99       71.66       71.33       71.00       70.67       70.33       70.00    
   2    70.00       71.72       73.25       74.62       75.83       76.88       77.77       78.53       79.14       79.62    
        79.96       80.18       80.27       80.25       80.10       79.83       79.58       79.32       79.07       78.83    
        78.58       78.34       78.09       77.84       77.59       77.34       77.07       76.81       76.54       76.26    
        75.98       75.69       75.40       75.11       74.81       74.51       74.20       73.89       73.58       73.27    
        72.95       72.63       72.31       71.99       71.66       71.33       71.00       70.67       70.33       70.00    
   3    70.00       71.72       73.26       74.63       75.84       76.89       77.79       78.54       79.15       79.62    
        79.96       80.18       80.27       80.24       80.09       79.82       79.56       79.31       79.07       78.82    
        78.58       78.34       78.10       77.85       77.60       77.34       77.08       76.82       76.54       76.27    
        75.98       75.70       75.41       75.11       74.81       74.51       74.21       73.90       73.59       73.27    
        72.95       72.63       72.31       71.99       71.66       71.33       71.00       70.67       70.34       70.00    
   4    70.00       71.73       73.28       74.65       75.86       76.92       77.81       78.56       79.17       79.63    
        79.97       80.17       80.26       80.22       80.07       79.80       79.54       79.30       79.05       78.82    
        78.58       78.34       78.10       77.86       77.61       77.36       77.09       76.83       76.56       76.28    
        76.00       75.71       75.42       75.12       74.82       74.52       74.21       73.90       73.59       73.28    
        72.96       72.64       72.32       71.99       71.66       71.33       71.00       70.67       70.34       70.00    
   5    70.00       71.74       73.30       74.68       75.90       76.95       77.85       78.59       79.19       79.65    
        79.97       80.17       80.24       80.19       80.03       79.77       79.51       79.27       79.04       78.81    
        78.58       78.35       78.11       77.87       77.63       77.37       77.11       76.85       76.57       76.29    
        76.01       75.72       75.43       75.13       74.83       74.53       74.22       73.91       73.60       73.28    
        72.96       72.64       72.32       71.99       71.67       71.34       71.01       70.67       70.34       70.00    
   6    70.00       71.75       73.32       74.72       75.94       77.00       77.90       78.64       79.23       79.68    
        79.98       80.16       80.21       80.15       79.99       79.72       79.47       79.24       79.02       78.80    
        78.58       78.36       78.13       77.89       77.65       77.40       77.14       76.87       76.59       76.31    
        76.03       75.74       75.44       75.14       74.84       74.54       74.23       73.92       73.60       73.29    
        72.97       72.65       72.32       72.00       71.67       71.34       71.01       70.67       70.34       70.00    
   7    70.00       71.77       73.36       74.77       76.00       77.07       77.97       78.70       79.28       79.71    
        80.00       80.15       80.18       80.09       79.92       79.65       79.41       79.20       78.99       78.79    
        78.59       78.37       78.15       77.92       77.68       77.43       77.17       76.90       76.62       76.34    
        76.05       75.76       75.46       75.16       74.86       74.55       74.24       73.93       73.61       73.29    
        72.98       72.65       72.33       72.00       71.68       71.34       71.01       70.68       70.34       70.00    
   8    70.00       71.80       73.41       74.84       76.09       77.16       78.06       78.79       79.36       79.77    
        80.02       80.13       80.12       80.01       79.81       79.55       79.33       79.14       78.97       78.79    
        78.60       78.40       78.18       77.96       77.72       77.47       77.20       76.93       76.65       76.37    
        76.08       75.78       75.48       75.18       74.87       74.56       74.25       73.94       73.62       73.30    
        72.98       72.66       72.34       72.01       71.68       71.35       71.01       70.68       70.34       70.00    
   9    70.00       71.83       73.47       74.93       76.20       77.28       78.19       78.91       79.47       79.84    
        80.06       80.12       80.05       79.88       79.65       79.40       79.22       79.08       78.94       78.79    
        78.62       78.44       78.23       78.01       77.77       77.51       77.25       76.98       76.69       76.40    
        76.11       75.81       75.51       75.20       74.89       74.58       74.26       73.95       73.63       73.31    
        72.99       72.67       72.34       72.02       71.69       71.35       71.02       70.68       70.34       70.00    
  10    70.00       71.88       73.56       75.04       76.34       77.44       78.36       79.08       79.61       79.96    
        80.13       80.12       79.95       79.67       79.38       79.17       79.07       79.00       78.92       78.81    
        78.67       78.49       78.29       78.07       77.83       77.57       77.30       77.03       76.74       76.44    
        76.14       75.84       75.53       75.22       74.91       74.59       74.28       73.96       73.64       73.32    
        73.00       72.68       72.35       72.03       71.69       71.36       71.02       70.68       70.34       70.00    
  11    70.00       71.93       73.66       75.19       76.52       77.65       78.58       79.30       79.82       80.14    
        80.24       80.14       79.83       79.36       78.91       78.83       78.90       78.95       78.94       78.87    
        78.74       78.58       78.38       78.15       77.91       77.64       77.37       77.08       76.79       76.49    
        76.18       75.87       75.56       75.25       74.93       74.61       74.29       73.97       73.65       73.33    
        73.01       72.69       72.36       72.04       71.70       71.37       71.03       70.69       70.35       70.00    
  12    70.00       72.00       73.80       75.38       76.76       77.92       78.86       79.59       80.10       80.39    
        80.45       80.24       79.74       78.91       77.92       78.34       78.73       78.95       79.01       78.97    
        78.86       78.69       78.49       78.25       78.00       77.73       77.44       77.15       76.85       76.54    
        76.23       75.91       75.59       75.27       74.95       74.63       74.31       73.99       73.66       73.34    
        73.02       72.70       72.37       72.05       71.72       71.38       71.04       70.70       70.35       70.00    
  13    70.00       72.09       73.97       75.62       77.05       78.25       79.22       79.97       80.48       80.76    
        80.79       80.52       79.85       78.49       75.32       77.87       78.76       79.10       79.19       79.15    
        79.03       78.85       78.63       78.38       78.11       77.82       77.52       77.22       76.91       76.59    
        76.27       75.95       75.62       75.30       74.97       74.65       74.32       74.00       73.68       73.35    
        73.03       72.71       72.39       72.06       71.73       71.39       71.05       70.70       70.35       70.00    
  14    70.00       72.21       74.18       75.92       77.42       78.67       79.68       80.44       80.97       81.25    
        81.29       81.06       80.52       79.66       78.62       78.99       79.33       79.49       79.50       79.41    
        79.25       79.04       78.79       78.52       78.23       77.93       77.62       77.30       76.97       76.65    
        76.32       75.99       75.66       75.32       74.99       74.66       74.33       74.01       73.69       73.37    
        73.05       72.73       72.40       72.08       71.75       71.41       71.06       70.71       70.36       70.00    
  15    70.00       72.35       74.46       76.30       77.88       79.19       80.23       81.02       81.56       81.87    
        81.93       81.77       81.39       80.84       80.29       80.11       80.07       80.02       79.91       79.74    
        79.52       79.27       78.99       78.68       78.37       78.04       77.71       77.38       77.04       76.70    
        76.37       76.03       75.69       75.35       75.01       74.68       74.35       74.02       73.70       73.38    
        73.06       72.74       72.42       72.10       71.77       71.43       71.08       70.73       70.37       70.00    
  16    70.00       72.54       74.80       76.77       78.44       79.82       80.90       81.72       82.27       82.59    
        82.68       82.57       82.28       81.87       81.44       81.08       80.83       80.61       80.38       80.12    
        79.83       79.52       79.20       78.86       78.51       78.16       77.81       77.46       77.11       76.76    
        76.42       76.07       75.72       75.38       75.03       74.69       74.36       74.03       73.70       73.39    
        73.07       72.76       72.45       72.13       71.80       71.46       71.11       70.75       70.38       70.00    
  17    70.00       72.77       75.24       77.36       79.14       80.58       81.71       82.53       83.09       83.40    
        83.50       83.41       83.16       82.80       82.38       81.93       81.55       81.21       80.87       80.53    
        80.17       79.80       79.42       79.04       78.66       78.28       77.91       77.54       77.18       76.82    
        76.46       76.11       75.76       75.40       75.05       74.71       74.36       74.03       73.71       73.39    
        73.09       72.78       72.48       72.16       71.84       71.50       71.14       70.77       70.39       70.00    
  18    70.00       73.08       75.80       78.11       80.01       81.52       82.66       83.48       84.02       84.31    
        84.38       84.28       84.03       83.66       83.21       82.69       82.22       81.79       81.37       80.94    
        80.51       80.07       79.64       79.22       78.80       78.40       78.01       77.62       77.25       76.88    
        76.51       76.15       75.79       75.43       75.07       74.72       74.37       74.03       73.71       73.40    
        73.11       72.81       72.52       72.21       71.89       71.54       71.18       70.80       70.40       70.00    
  19    70.00       73.51       76.55       79.09       81.10       82.65       83.79       84.57       85.06       85.29    
        85.32       85.17       84.88       84.47       83.97       83.39       82.85       82.35       81.86       81.37    
        80.85       80.35       79.86       79.39       78.94       78.51       78.10       77.70       77.31       76.93    
        76.56       76.19       75.83       75.46       75.10       74.74       74.38       74.03       73.71       73.41    
        73.13       72.85       72.57       72.27       71.95       71.61       71.24       70.84       70.43       70.00    
  20    70.00       74.10       77.57       80.36       82.49       84.04       85.12       85.82       86.22       86.36    
        86.30       86.08       85.72       85.25       84.69       84.04       83.44       82.89       82.36       81.80    
        81.19       80.60       80.06       79.55       79.06       78.61       78.18       77.77       77.37       76.99    
        76.61       76.24       75.87       75.50       75.13       74.76       74.39       74.04       73.71       73.43    
        73.16       72.90       72.63       72.35       72.03       71.69       71.31       70.90       70.46       70.00    
  21    70.00       74.96       79.01       82.06       84.24       85.73       86.69       87.24       87.49       87.50    
        87.32       86.99       86.54       85.99       85.36       84.64       83.98       83.39       82.90       82.27    
        81.49       80.83       80.23       79.68       79.16       78.69       78.24       77.82       77.42       77.04    
        76.66       76.29       75.92       75.55       75.17       74.80       74.42       74.05       73.72       73.45    
        73.21       72.98       72.72       72.44       72.13       71.79       71.40       70.97       70.50       70.00    
  22    70.00       76.32       81.10       84.37       86.48       87.78       88.50       88.83       88.87       88.69    
        88.36       87.90       87.34       86.70       85.97       85.18       84.44       83.77       83.21       82.52    
        81.70       80.99       80.35       79.77       79.24       78.75       78.30       77.87       77.47       77.08    
        76.71       76.34       75.97       75.60       75.23       74.86       74.48       74.10       73.75       73.51    
        73.30       73.07       72.83       72.56       72.25       71.90       71.51       71.06       70.55       70.00    
  23    70.00       78.60       84.29       87.55       89.32       90.20       90.55       90.55       90.32       89.92    
        89.40       88.79       88.10       87.35       86.53       85.66       84.83       84.05       83.30       82.53    
        81.79       81.09       80.44       79.84       79.29       78.80       78.34       77.91       77.51       77.13    
        76.76       76.39       76.03       75.67       75.31       74.94       74.58       74.22       73.90       73.64    
        73.42       73.19       72.95       72.68       72.38       72.03       71.63       71.16       70.61       70.00    
  24    70.00       82.78       89.31       91.86       92.79       92.98       92.79       92.37       91.80       91.14    
        90.41       89.63       88.80       87.94       87.03       86.08       85.17       84.28       83.41       82.56    
        81.84       81.15       80.50       79.89       79.33       78.83       78.38       77.96       77.56       77.18    
        76.81       76.46       76.10       75.75       75.39       75.04       74.69       74.36       74.06       73.79    
        73.55       73.32       73.07       72.80       72.50       72.15       71.75       71.27       70.69       70.00    
  25    70.00       91.18       97.39       97.39       96.74       95.95       95.08       94.18       93.25       92.31    
        91.35       90.39       89.42       88.44       87.45       86.45       85.46       84.48       83.50       82.53    
        81.88       81.21       80.56       79.94       79.38       78.88       78.43       78.01       77.61       77.24    
        76.87       76.52       76.17       75.82       75.48       75.14       74.81       74.49       74.19       73.92    
        73.67       73.42       73.16       72.88       72.58       72.23       71.83       71.35       70.76       70.00    
  26    70.00       82.80       89.34       91.92       92.87       93.07       92.90       92.50       91.95       91.31    
        90.60       89.83       89.01       88.15       87.24       86.28       85.34       84.42       83.53       82.67    
        81.96       81.29       80.64       80.04       79.48       78.97       78.51       78.09       77.69       77.31    
        76.94       76.59       76.24       75.89       75.55       75.22       74.89       74.58       74.28       74.00    
        73.73       73.46       73.18       72.89       72.57       72.20       71.79       71.29       70.70       70.00    
  27    70.00       78.64       84.37       87.67       89.47       90.40       90.78       90.82       90.62       90.26    
        89.78       89.19       88.52       87.77       86.96       86.06       85.19       84.34       83.52       82.73    
        82.02       81.36       80.72       80.13       79.58       79.08       78.61       78.18       77.77       77.39    
        77.01       76.65       76.30       75.95       75.61       75.28       74.95       74.64       74.33       74.04    
        73.75       73.46       73.17       72.85       72.51       72.13       71.70       71.21       70.64       70.00    
  28    70.00       76.39       81.23       84.56       86.72       88.07       88.85       89.24       89.33       89.22    
        88.93       88.52       87.99       87.36       86.63       85.81       85.01       84.22       83.46       82.73    
        82.05       81.40       80.79       80.22       79.68       79.17       78.71       78.27       77.86       77.46    
        77.08       76.71       76.36       76.01       75.66       75.33       75.00       74.68       74.36       74.06    
        73.75       73.45       73.13       72.80       72.44       72.05       71.61       71.12       70.58       70.00    
  29    70.00       75.06       79.18       82.31       84.57       86.14       87.17       87.80       88.13       88.22    
        88.11       87.84       87.44       86.92       86.28       85.54       84.80       84.08       83.38       82.69    
        82.05       81.43       80.84       80.28       79.75       79.26       78.79       78.35       77.93       77.53    
        77.15       76.77       76.41       76.05       75.71       75.36       75.03       74.70       74.38       74.06    
        73.74       73.42       73.08       72.74       72.37       71.96       71.53       71.05       70.54       70.00    
  30    70.00       74.21       77.79       80.68       82.90       84.56       85.74       86.54       87.04       87.28    
        87.32       87.18       86.89       86.47       85.92       85.24       84.58       83.91       83.26       82.63    
        82.01       81.42       80.86       80.32       79.81       79.32       78.86       78.42       78.00       77.59    
        77.20       76.83       76.46       76.10       75.74       75.40       75.05       74.72       74.39       74.05    
        73.72       73.39       73.04       72.68       72.30       71.89       71.46       71.00       70.51       70.00    
  31    70.00       73.64       76.82       79.47       81.61       83.28       84.54       85.45       86.06       86.43    
        86.58       86.55       86.36       86.02       85.55       84.94       84.34       83.73       83.13       82.54    
        81.96       81.40       80.86       80.34       79.84       79.36       78.91       78.47       78.05       77.64    
        77.25       76.87       76.50       76.13       75.77       75.42       75.07       74.73       74.39       74.05    
        73.70       73.35       73.00       72.63       72.24       71.83       71.40       70.95       70.48       70.00    
  32    70.00       73.24       76.11       78.56       80.60       82.25       83.54       84.52       85.21       85.67    
        85.91       85.97       85.86       85.59       85.19       84.64       84.09       83.54       82.98       82.43    
        81.89       81.36       80.84       80.34       79.86       79.39       78.94       78.51       78.09       77.69    
        77.29       76.91       76.53       76.16       75.80       75.44       75.09       74.74       74.39       74.04    
        73.68       73.32       72.96       72.58       72.19       71.78       71.36       70.92       70.46       70.00    
  33    70.00       72.95       75.58       77.87       79.81       81.42       82.71       83.72       84.47       84.99    
        85.30       85.43       85.39       85.18       84.84       84.35       83.85       83.34       82.82       82.31    
        81.80       81.30       80.80       80.32       79.86       79.40       78.96       78.54       78.12       77.72    
        77.32       76.94       76.56       76.19       75.82       75.46       75.10       74.74       74.38       74.03    
        73.67       73.30       72.93       72.55       72.15       71.74       71.32       70.89       70.45       70.00    
  34    70.00       72.73       75.18       77.33       79.19       80.75       82.03       83.05       83.83       84.40    
        84.76       84.94       84.95       84.80       84.51       84.07       83.61       83.14       82.66       82.18    
        81.70       81.23       80.76       80.30       79.84       79.40       78.97       78.55       78.14       77.74    
        77.35       76.96       76.58       76.21       75.84       75.47       75.11       74.74       74.38       74.02    
        73.65       73.28       72.90       72.52       72.12       71.71       71.30       70.87       70.44       70.00    
  35    70.00       72.56       74.87       76.91       78.68       80.20       81.46       82.49       83.29       83.88    
        84.28       84.50       84.56       84.45       84.20       83.80       83.38       82.94       82.50       82.05    
        81.60       81.15       80.70       80.26       79.82       79.39       78.97       78.56       78.15       77.75    
        77.36       76.98       76.60       76.22       75.85       75.48       75.11       74.74       74.38       74.01    
        73.64       73.26       72.88       72.49       72.10       71.69       71.28       70.86       70.43       70.00    
  36    70.00       72.43       74.62       76.57       78.28       79.75       80.99       82.01       82.82       83.43    
        83.86       84.11       84.20       84.13       83.91       83.54       83.16       82.76       82.34       81.92    
        81.49       81.06       80.64       80.21       79.79       79.37       78.96       78.55       78.15       77.76    
        77.37       76.99       76.61       76.23       75.86       75.48       75.11       74.74       74.37       74.00    
        73.63       73.25       72.86       72.47       72.08       71.67       71.26       70.85       70.42       70.00    
  37    70.00       72.33       74.43       76.30       77.95       79.38       80.59       81.60       82.42       83.04    
        83.49       83.76       83.88       83.84       83.65       83.31       82.95       82.58       82.19       81.79    
        81.39       80.98       80.57       80.16       79.75       79.34       78.94       78.55       78.15       77.76    
        77.38       76.99       76.61       76.24       75.86       75.49       75.12       74.74       74.37       73.99    
        73.62       73.23       72.85       72.46       72.06       71.66       71.25       70.84       70.42       70.00    
  38    70.00       72.24       74.27       76.08       77.68       79.07       80.27       81.26       82.07       82.71    
        83.16       83.46       83.59       83.57       83.41       83.09       82.76       82.41       82.04       81.67    
        81.28       80.89       80.50       80.10       79.71       79.31       78.92       78.53       78.14       77.76    
        77.37       76.99       76.62       76.24       75.86       75.49       75.12       74.74       74.37       73.99    
        73.61       73.22       72.84       72.45       72.05       71.65       71.24       70.83       70.42       70.00    
  39    70.00       72.18       74.14       75.90       77.46       78.82       79.99       80.98       81.78       82.42    
        82.88       83.19       83.34       83.34       83.19       82.90       82.58       82.25       81.91       81.55    
        81.18       80.81       80.43       80.05       79.66       79.28       78.90       78.51       78.13       77.75    
        77.37       76.99       76.62       76.24       75.86       75.49       75.11       74.74       74.36       73.98    
        73.60       73.22       72.83       72.44       72.04       71.64       71.23       70.83       70.41       70.00    
  40    70.00       72.12       74.03       75.75       77.27       78.61       79.76       80.73       81.53       82.17    
        82.64       82.95       83.12       83.13       83.00       82.72       82.42       82.11       81.78       81.44    
        81.09       80.73       80.36       79.99       79.62       79.24       78.87       78.49       78.12       77.74    
        77.36       76.99       76.61       76.24       75.86       75.49       75.11       74.74       74.36       73.98    
        73.59       73.21       72.82       72.43       72.03       71.63       71.23       70.82       70.41       70.00    
  41    70.00       72.08       73.95       75.63       77.12       78.43       79.57       80.53       81.32       81.96    
        82.43       82.75       82.92       82.95       82.82       82.56       82.28       81.98       81.67       81.34    
        81.00       80.65       80.30       79.94       79.58       79.21       78.84       78.47       78.10       77.73    
        77.35       76.98       76.61       76.23       75.86       75.49       75.11       74.73       74.35       73.97    
        73.59       73.20       72.81       72.42       72.03       71.63       71.22       70.82       70.41       70.00    
  42    70.00       72.04       73.88       75.53       76.99       78.28       79.40       80.35       81.14       81.77    
        82.25       82.58       82.75       82.78       82.67       82.42       82.15       81.86       81.56       81.25    
        80.92       80.58       80.24       79.89       79.53       79.17       78.81       78.45       78.08       77.71    
        77.34       76.97       76.60       76.23       75.86       75.48       75.11       74.73       74.35       73.97    
        73.59       73.20       72.81       72.42       72.02       71.62       71.22       70.82       70.41       70.00    
  43    70.00       72.01       73.82       75.44       76.89       78.16       79.27       80.21       80.99       81.62    
        82.10       82.43       82.61       82.65       82.54       82.30       82.04       81.76       81.47       81.16    
        80.84       80.52       80.18       79.84       79.49       79.14       78.79       78.43       78.06       77.70    
        77.33       76.97       76.60       76.23       75.85       75.48       75.10       74.73       74.35       73.97    
        73.58       73.19       72.81       72.41       72.02       71.62       71.22       70.81       70.41       70.00    
  44    70.00       71.98       73.77       75.38       76.81       78.06       79.16       80.09       80.87       81.49    
        81.97       82.30       82.48       82.53       82.43       82.19       81.94       81.67       81.39       81.09    
        80.78       80.46       80.13       79.80       79.46       79.11       78.76       78.41       78.05       77.69    
        77.32       76.96       76.59       76.22       75.85       75.48       75.10       74.72       74.34       73.96    
        73.58       73.19       72.80       72.41       72.01       71.62       71.22       70.81       70.41       70.00    
  45    70.00       71.96       73.73       75.32       76.74       77.98       79.07       79.99       80.77       81.39    
        81.86       82.19       82.38       82.43       82.34       82.11       81.86       81.59       81.32       81.03    
        80.72       80.41       80.09       79.76       79.43       79.08       78.74       78.39       78.03       77.67    
        77.31       76.95       76.58       76.21       75.84       75.47       75.10       74.72       74.34       73.96    
        73.58       73.19       72.80       72.41       72.01       71.61       71.21       70.81       70.41       70.00    
  46    70.00       71.95       73.70       75.28       76.68       77.92       78.99       79.91       80.68       81.30    
        81.78       82.11       82.30       82.35       82.26       82.03       81.79       81.53       81.26       80.97    
        80.68       80.37       80.05       79.73       79.40       79.06       78.72       78.37       78.02       77.66    
        77.30       76.94       76.58       76.21       75.84       75.47       75.09       74.72       74.34       73.96    
        73.57       73.19       72.80       72.40       72.01       71.61       71.21       70.81       70.41       70.00    
  47    70.00       71.93       73.68       75.24       76.64       77.87       78.94       79.85       80.62       81.24    
        81.71       82.04       82.23       82.28       82.20       81.97       81.73       81.48       81.21       80.93    
        80.64       80.34       80.02       79.70       79.38       79.04       78.70       78.36       78.01       77.65    
        77.30       76.94       76.57       76.21       75.84       75.47       75.09       74.72       74.34       73.95    
        73.57       73.18       72.80       72.40       72.01       71.61       71.21       70.81       70.41       70.00    
  48    70.00       71.93       73.66       75.22       76.61       77.83       78.90       79.81       80.57       81.19    
        81.66       81.99       82.18       82.24       82.15       81.93       81.69       81.44       81.18       80.90    
        80.61       80.31       80.00       79.68       79.36       79.03       78.69       78.35       78.00       77.65    
        77.29       76.93       76.57       76.20       75.83       75.46       75.09       74.71       74.33       73.95    
        73.57       73.18       72.79       72.40       72.01       71.61       71.21       70.81       70.40       70.00    
  49    70.00       71.92       73.65       75.20       76.59       77.81       78.87       79.78       80.54       81.16    
        81.63       81.96       82.15       82.21       82.12       81.90       81.67       81.42       81.16       80.88    
        80.59       80.29       79.99       79.67       79.35       79.02       78.68       78.34       77.99       77.64    
        77.29       76.93       76.57       76.20       75.83       75.46       75.09       74.71       74.33       73.95    
        73.57       73.18       72.79       72.40       72.01       71.61       71.21       70.81       70.40       70.00    
  50    70.00       71.92       73.65       75.20       76.58       77.80       78.86       79.77       80.53       81.14    
        81.61       81.94       82.14       82.19       82.11       81.89       81.65       81.41       81.14       80.87    
        80.58       80.29       79.98       79.66       79.34       79.01       78.68       78.34       77.99       77.64    
        77.28       76.93       76.56       76.20       75.83       75.46       75.09       74.71       74.33       73.95    
        73.57       73.18       72.79       72.40       72.01       71.61       71.21       70.81       70.40       70.00    
1
              HEAD IN LAYER   3 AT END OF TIME STEP   1 IN STRESS PERIOD    1
  ---------------------------------------------------------------------------

            1           2           3           4           5           6           7           8           9          10
           11          12          13          14          15          16          17          18          19          20
           21          22          23          24          25          26          27          28          29          30
[...]
        81.85       81.22       80.62       80.05       79.51       78.98       78.47       77.97       77.48       76.98    
        76.49       75.98       75.45       74.90       74.31       73.66       72.93       72.08       71.22       71.37    
        71.52       71.55       71.49       71.36       71.19       70.99       70.76       70.52       70.26       70.00    
  24    70.00       82.78       89.31       91.86       92.79       92.98       92.79       92.37       91.80       91.14    
        90.41       89.63       88.80       87.94       87.03       86.08       85.17       84.28       83.41       82.56    
        81.92       81.31       80.72       80.15       79.60       79.07       78.56       78.05       77.56       77.06    
        76.56       76.06       75.54       75.01       74.45       73.85       73.23       72.60       72.08       71.90    
        71.81       71.72       71.60       71.44       71.24       71.03       70.79       70.53       70.27       70.00    
  25    70.00       91.16       97.37       97.38       96.74       95.94       95.08       94.18       93.25       92.31    
        91.35       90.39       89.42       88.44       87.45       86.45       85.46       84.48       83.50       82.53    
        81.97       81.38       80.79       80.23       79.68       79.15       78.64       78.13       77.63       77.14    
        76.64       76.15       75.64       75.13       74.60       74.06       73.52       73.01       72.58       72.30    
        72.09       71.91       71.73       71.53       71.31       71.07       70.82       70.55       70.28       70.00    
  26    70.00       82.80       89.34       91.92       92.87       93.07       92.90       92.50       91.95       91.31    
        90.60       89.83       89.01       88.15       87.24       86.28       85.34       84.42       83.53       82.67    
        82.04       81.44       80.86       80.29       79.75       79.22       78.70       78.20       77.70       77.21    
        76.72       76.24       75.75       75.25       74.75       74.26       73.77       73.32       72.92       72.60    
        72.33       72.09       71.86       71.62       71.38       71.12       70.85       70.57       70.29       70.00    
  27    70.00       78.64       84.37       87.67       89.47       90.40       90.78       90.82       90.62       90.26    
        89.78       89.19       88.52       87.77       86.96       86.06       85.19       84.34       83.52       82.73    
        82.09       81.48       80.90       80.34       79.80       79.28       78.76       78.26       77.77       77.29    
        76.80       76.33       75.85       75.37       74.90       74.43       73.98       73.56       73.17       72.83    
        72.53       72.25       71.98       71.72       71.45       71.17       70.89       70.60       70.30       70.00    
  28    70.00       76.38       81.23       84.56       86.72       88.07       88.85       89.24       89.33       89.22    
        88.93       88.52       87.99       87.36       86.63       85.81       85.01       84.22       83.46       82.73    
        82.10       81.50       80.93       80.38       79.84       79.32       78.81       78.32       77.83       77.35    
        76.88       76.41       75.95       75.49       75.03       74.59       74.16       73.75       73.37       73.02    
        72.69       72.39       72.09       71.80       71.51       71.22       70.92       70.62       70.31       70.00    
  29    70.00       75.05       79.18       82.31       84.57       86.14       87.17       87.80       88.13       88.22    
        88.11       87.84       87.44       86.92       86.28       85.54       84.80       84.08       83.38       82.69    
        82.08       81.50       80.94       80.39       79.87       79.35       78.85       78.37       77.89       77.41    
        76.95       76.49       76.04       75.59       75.15       74.72       74.30       73.90       73.52       73.17    
        72.83       72.50       72.19       71.88       71.57       71.26       70.95       70.64       70.32       70.00    
  30    70.00       74.21       77.79       80.68       82.90       84.56       85.74       86.54       87.04       87.28    
        87.32       87.18       86.89       86.47       85.92       85.24       84.58       83.91       83.26       82.63    
        82.04       81.47       80.93       80.39       79.88       79.38       78.88       78.40       77.93       77.47    
        77.01       76.56       76.12       75.68       75.25       74.83       74.42       74.03       73.65       73.29    
        72.94       72.60       72.27       71.95       71.63       71.30       70.98       70.65       70.33       70.00    
  31    70.00       73.64       76.82       79.47       81.61       83.28       84.54       85.45       86.06       86.43    
        86.58       86.55       86.36       86.02       85.55       84.94       84.34       83.73       83.13       82.54    
        81.98       81.43       80.90       80.38       79.88       79.39       78.90       78.43       77.97       77.51    
        77.06       76.62       76.18       75.76       75.33       74.92       74.52       74.13       73.75       73.38    
        73.03       72.68       72.34       72.01       71.67       71.34       71.01       70.67       70.34       70.00    
  32    70.00       73.24       76.11       78.56       80.60       82.25       83.54       84.51       85.21       85.67    
        85.91       85.97       85.86       85.59       85.19       84.64       84.09       83.54       82.98       82.43    
        81.89       81.37       80.86       80.36       79.87       79.39       78.91       78.45       78.00       77.55    
        77.11       76.67       76.24       75.82       75.41       75.00       74.60       74.21       73.83       73.46    
        73.10       72.75       72.40       72.06       71.71       71.37       71.03       70.69       70.34       70.00    
  33    70.00       72.95       75.58       77.87       79.81       81.42       82.71       83.72       84.47       84.99    
        85.30       85.43       85.39       85.18       84.84       84.35       83.85       83.34       82.82       82.31    
        81.80       81.30       80.81       80.32       79.84       79.38       78.92       78.46       78.02       77.58    
        77.14       76.71       76.29       75.88       75.47       75.07       74.67       74.28       73.90       73.53    
        73.17       72.80       72.45       72.10       71.75       71.40       71.05       70.70       70.35       70.00    
  34    70.00       72.73       75.18       77.33       79.19       80.75       82.03       83.05       83.83       84.40    
        84.76       84.94       84.95       84.80       84.51       84.07       83.61       83.14       82.66       82.18    
        81.70       81.22       80.75       80.28       79.82       79.36       78.91       78.47       78.03       77.60    
        77.17       76.75       76.33       75.92       75.52       75.12       74.73       74.34       73.96       73.59    
        73.22       72.85       72.49       72.13       71.78       71.42       71.07       70.71       70.36       70.00    
  35    70.00       72.56       74.87       76.91       78.68       80.20       81.46       82.49       83.29       83.88    
        84.28       84.50       84.56       84.45       84.20       83.80       83.38       82.94       82.50       82.05    
        81.59       81.13       80.68       80.23       79.78       79.34       78.90       78.46       78.04       77.61    
        77.19       76.78       76.37       75.96       75.56       75.16       74.77       74.39       74.01       73.63    
        73.26       72.89       72.53       72.16       71.80       71.44       71.08       70.72       70.36       70.00    
  36    70.00       72.43       74.62       76.57       78.28       79.75       80.99       82.01       82.82       83.43    
        83.86       84.11       84.20       84.13       83.91       83.54       83.16       82.76       82.34       81.92    
        81.48       81.05       80.61       80.17       79.74       79.31       78.88       78.46       78.04       77.62    
        77.21       76.80       76.39       75.99       75.59       75.20       74.81       74.43       74.04       73.67    
        73.29       72.92       72.55       72.19       71.82       71.46       71.09       70.73       70.36       70.00    
  37    70.00       72.33       74.43       76.30       77.95       79.38       80.59       81.60       82.42       83.04    
        83.49       83.76       83.88       83.84       83.65       83.31       82.95       82.58       82.19       81.79    
        81.38       80.96       80.54       80.11       79.69       79.27       78.86       78.44       78.03       77.62    
        77.21       76.81       76.41       76.01       75.62       75.23       74.84       74.46       74.08       73.70    
        73.32       72.95       72.58       72.21       71.84       71.47       71.10       70.74       70.37       70.00    
  38    70.00       72.24       74.27       76.08       77.68       79.07       80.27       81.26       82.07       82.71    
        83.16       83.46       83.59       83.57       83.41       83.09       82.76       82.41       82.04       81.67    
        81.27       80.87       80.46       80.06       79.65       79.24       78.83       78.43       78.02       77.62    
        77.22       76.82       76.42       76.03       75.64       75.25       74.87       74.48       74.10       73.72    
        73.35       72.97       72.60       72.23       71.85       71.48       71.11       70.74       70.37       70.00    
  39    70.00       72.18       74.14       75.90       77.46       78.82       79.99       80.98       81.78       82.42    
        82.88       83.19       83.34       83.34       83.19       82.90       82.58       82.25       81.91       81.55    
        81.17       80.78       80.39       80.00       79.60       79.20       78.81       78.41       78.01       77.61    
        77.22       76.83       76.43       76.04       75.66       75.27       74.88       74.50       74.12       73.74    
        73.37       72.99       72.61       72.24       71.87       71.49       71.12       70.75       70.37       70.00    
  40    70.00       72.12       74.03       75.75       77.27       78.61       79.76       80.73       81.53       82.17    
        82.64       82.95       83.12       83.13       83.00       82.72       82.42       82.11       81.78       81.44    
        81.07       80.70       80.32       79.94       79.55       79.17       78.78       78.39       78.00       77.61    
        77.22       76.83       76.44       76.05       75.67       75.28       74.90       74.52       74.14       73.76    
        73.38       73.00       72.63       72.25       71.88       71.50       71.13       70.75       70.38       70.00    
  41    70.00       72.07       73.95       75.63       77.12       78.43       79.57       80.53       81.32       81.96    
        82.43       82.75       82.92       82.95       82.82       82.56       82.28       81.98       81.67       81.34    
        80.99       80.62       80.26       79.89       79.51       79.13       78.75       78.37       77.98       77.60    
        77.21       76.83       76.44       76.06       75.68       75.29       74.91       74.53       74.15       73.77    
        73.39       73.02       72.64       72.26       71.88       71.51       71.13       70.75       70.38       70.00    
  42    70.00       72.04       73.88       75.53       76.99       78.28       79.40       80.35       81.14       81.77    
        82.25       82.58       82.75       82.78       82.67       82.42       82.15       81.86       81.56       81.25    
        80.90       80.55       80.20       79.83       79.47       79.10       78.72       78.34       77.97       77.59    
        77.21       76.82       76.44       76.06       75.68       75.30       74.92       74.54       74.16       73.78    
        73.40       73.03       72.65       72.27       71.89       71.51       71.13       70.76       70.38       70.00    
  43    70.00       72.01       73.82       75.44       76.89       78.16       79.27       80.21       80.99       81.62    
        82.10       82.43       82.61       82.65       82.54       82.30       82.04       81.76       81.47       81.16    
        80.83       80.49       80.14       79.79       79.43       79.06       78.69       78.32       77.95       77.58    
        77.20       76.82       76.44       76.06       75.69       75.31       74.93       74.55       74.17       73.79    
        73.41       73.03       72.65       72.28       71.90       71.52       71.14       70.76       70.38       70.00    
  44    70.00       71.98       73.77       75.38       76.81       78.06       79.16       80.09       80.87       81.49    
        81.97       82.30       82.48       82.53       82.43       82.19       81.94       81.67       81.39       81.09    
        80.77       80.43       80.09       79.74       79.39       79.03       78.67       78.30       77.94       77.56    
        77.19       76.82       76.44       76.06       75.69       75.31       74.93       74.55       74.18       73.80    
        73.42       73.04       72.66       72.28       71.90       71.52       71.14       70.76       70.38       70.00    
  45    70.00       71.96       73.73       75.32       76.74       77.98       79.07       79.99       80.77       81.39    
        81.86       82.19       82.38       82.43       82.34       82.11       81.86       81.59       81.32       81.03    
        80.71       80.38       80.05       79.71       79.36       79.01       78.65       78.29       77.92       77.55    
        77.18       76.81       76.44       76.06       75.69       75.31       74.94       74.56       74.18       73.80    
        73.42       73.04       72.66       72.28       71.90       71.52       71.14       70.76       70.38       70.00    
  46    70.00       71.95       73.70       75.28       76.68       77.92       78.99       79.91       80.68       81.30    
        81.78       82.11       82.30       82.35       82.26       82.03       81.79       81.53       81.26       80.97    
        80.66       80.34       80.01       79.68       79.33       78.98       78.63       78.27       77.91       77.54    
        77.18       76.81       76.44       76.06       75.69       75.31       74.94       74.56       74.18       73.81    
        73.43       73.05       72.67       72.29       71.91       71.53       71.14       70.76       70.38       70.00    
  47    70.00       71.93       73.68       75.24       76.64       77.87       78.94       79.85       80.62       81.24    
        81.71       82.04       82.23       82.28       82.20       81.97       81.73       81.48       81.21       80.93    
        80.63       80.31       79.98       79.65       79.31       78.96       78.61       78.26       77.90       77.54    
        77.17       76.80       76.43       76.06       75.69       75.31       74.94       74.56       74.19       73.81    
        73.43       73.05       72.67       72.29       71.91       71.53       71.15       70.76       70.38       70.00    
  48    70.00       71.93       73.66       75.22       76.61       77.83       78.90       79.81       80.57       81.19    
        81.66       81.99       82.18       82.24       82.15       81.93       81.69       81.44       81.18       80.90    
        80.60       80.28       79.96       79.63       79.29       78.95       78.60       78.25       77.89       77.53    
        77.17       76.80       76.43       76.06       75.69       75.32       74.94       74.56       74.19       73.81    
        73.43       73.05       72.67       72.29       71.91       71.53       71.15       70.76       70.38       70.00    
  49    70.00       71.92       73.65       75.20       76.59       77.81       78.87       79.78       80.54       81.16    
        81.63       81.96       82.15       82.21       82.12       81.90       81.67       81.42       81.16       80.88    
        80.58       80.27       79.95       79.62       79.28       78.94       78.59       78.24       77.89       77.53    
        77.16       76.80       76.43       76.06       75.69       75.32       74.94       74.57       74.19       73.81    
        73.43       73.05       72.67       72.29       71.91       71.53       71.15       70.77       70.38       70.00    
  50    70.00       71.92       73.65       75.20       76.58       77.80       78.86       79.77       80.53       81.14    
        81.61       81.94       82.14       82.19       82.11       81.89       81.65       81.41       81.14       80.87    
        80.57       80.26       79.94       79.61       79.28       78.94       78.59       78.24       77.88       77.52    
        77.16       76.80       76.43       76.06       75.69       75.32       74.94       74.57       74.19       73.81    
        73.43       73.05       72.67       72.29       71.91       71.53       71.15       70.77       70.38       70.00    

 HEAD WILL BE SAVED ON UNIT   51 AT END OF TIME STEP    1, STRESS PERIOD    1

 DRAWDOWN WILL BE SAVED ON UNIT   52 AT END OF TIME STEP    1, STRESS PERIOD    1
1
  VOLUMETRIC BUDGET FOR ENTIRE MODEL AT END OF TIME STEP    1, STRESS PERIOD   1
  ------------------------------------------------------------------------------

     CUMULATIVE VOLUMES      L**3       RATES FOR THIS TIME STEP      L**3/T
     ------------------                 ------------------------

           IN:                                      IN:
           ---                                      ---
             STORAGE =           0.0000               STORAGE =           0.0000
       CONSTANT HEAD =           0.0000         CONSTANT HEAD =           0.0000
               WELLS =         375.0000                 WELLS =         375.0000
       RIVER LEAKAGE =       46823.1289         RIVER LEAKAGE =       46823.1289
                  ET =           0.0000                    ET =           0.0000
            RECHARGE =       35599.9961              RECHARGE =       35599.9961

            TOTAL IN =       82798.1250              TOTAL IN =       82798.1250

          OUT:                                     OUT:
          ----                                     ----
             STORAGE =           0.0000               STORAGE =           0.0000
       CONSTANT HEAD =       74593.5781         CONSTANT HEAD =       74593.5781
               WELLS =        6000.0000                 WELLS =        6000.0000
       RIVER LEAKAGE =        1811.2975         RIVER LEAKAGE =        1811.2975
                  ET =         393.0309                    ET =         393.0309
            RECHARGE =           0.0000              RECHARGE =           0.0000

           TOTAL OUT =       82797.9062             TOTAL OUT =       82797.9062

            IN - OUT =           0.2188              IN - OUT =           0.2188

 PERCENT DISCREPANCY =           0.00     PERCENT DISCREPANCY =           0.00






         TIME SUMMARY AT END OF TIME STEP    1 IN STRESS PERIOD    1
                    SECONDS     MINUTES      HOURS       DAYS        YEARS
                    -----------------------------------------------------------
   TIME STEP LENGTH  86400.      1440.0      24.000      1.0000     2.73785E-03
 STRESS PERIOD TIME  86400.      1440.0      24.000      1.0000     2.73785E-03
         TOTAL TIME  86400.      1440.0      24.000      1.0000     2.73785E-03
1

 Run end date and time (yyyy/mm/dd hh:mm:ss): 2026/02/25  7:17:59
 Elapsed run time:  8.566 Seconds

