                                  MODFLOW-2005     
      U.S. GEOLOGICAL SURVEY MODULAR FINITE-DIFFERENCE GROUND-WATER FLOW MODEL
                            VERSION 1.12.00 2/3/2017

 LIST FILE: static_ensemble_S2wel_1111111.list
                         UNIT    2

 OPENING static_ensemble_S2wel_1111111.dis
 FILE TYPE:DIS   UNIT   11   STATUS:OLD    
 FORMAT:FORMATTED              ACCESS:SEQUENTIAL          

 OPENING static_ensemble_S2wel_1111111.bas
 FILE TYPE:BAS6   UNIT   13   STATUS:OLD    
 FORMAT:FORMATTED              ACCESS:SEQUENTIAL          

 OPENING static_ensemble_S2wel_1111111.lpf
 FILE TYPE:LPF   UNIT   15   STATUS:OLD    
 FORMAT:FORMATTED              ACCESS:SEQUENTIAL          

 OPENING static_ensemble_S2wel_1111111.evt
 FILE TYPE:EVT   UNIT   22   STATUS:OLD    
 FORMAT:FORMATTED              ACCESS:SEQUENTIAL          

 OPENING static_ensemble_S2wel_1111111.rch
 FILE TYPE:RCH   UNIT   19   STATUS:OLD    
 FORMAT:FORMATTED              ACCESS:SEQUENTIAL          

 OPENING static_ensemble_S2wel_1111111.riv
 FILE TYPE:RIV   UNIT   18   STATUS:OLD    
 FORMAT:FORMATTED              ACCESS:SEQUENTIAL          

 OPENING static_ensemble_S2wel_1111111.wel
 FILE TYPE:WEL   UNIT   20   STATUS:OLD    
 FORMAT:FORMATTED              ACCESS:SEQUENTIAL          

 OPENING static_ensemble_S2wel_1111111.oc
 FILE TYPE:OC   UNIT   14   STATUS:OLD    
 FORMAT:FORMATTED              ACCESS:SEQUENTIAL          

 OPENING static_ensemble_S2wel_1111111.pcg
 FILE TYPE:PCG   UNIT   27   STATUS:OLD    
 FORMAT:FORMATTED              ACCESS:SEQUENTIAL          

 OPENING static_ensemble_S2wel_1111111.cbc
 FILE TYPE:DATA(BINARY)   UNIT   53   STATUS:REPLACE
 FORMAT:UNFORMATTED            ACCESS:STREAM              

 OPENING static_ensemble_S2wel_1111111.hds
 FILE TYPE:DATA(BINARY)   UNIT   51   STATUS:REPLACE
 FORMAT:UNFORMATTED            ACCESS:STREAM              

 OPENING static_ensemble_S2wel_1111111.ddn
 FILE TYPE:DATA(BINARY)   UNIT   52   STATUS:REPLACE
 FORMAT:UNFORMATTED            ACCESS:STREAM              

 BAS -- BASIC PACKAGE, VERSION 7, 5/2/2005 INPUT READ FROM UNIT   13
 
 MODFLOW was compiled using mixed precision
 Precision of REAL variables:           6
 Precision of DOUBLE PRECISION variables:          15

 DISCRETIZATION INPUT DATA READ FROM UNIT   11
 # DIS package for MODFLOW-2005 generated by Flopy 3.10.0
    3 LAYERS        50 ROWS        50 COLUMNS
    1 STRESS PERIOD(S) IN SIMULATION
 MODEL TIME UNIT IS DAYS
 MODEL LENGTH UNIT IS METERS
  Confining bed flag for each layer:
   0   0   0

                     DELR =   1000.00    

                     DELC =   1000.00    



           TOP ELEVATION OF LAYER 1
 READING ON UNIT   11 WITH FORMAT: (50E15.6)           



             MODEL LAYER BOTTOM EL. FOR LAYER   1
 READING ON UNIT   11 WITH FORMAT: (50E15.6)           



             MODEL LAYER BOTTOM EL. FOR LAYER   2
 READING ON UNIT   11 WITH FORMAT: (50E15.6)           



             MODEL LAYER BOTTOM EL. FOR LAYER   3
 READING ON UNIT   11 WITH FORMAT: (50E15.6)           


 STRESS PERIOD     LENGTH       TIME STEPS     MULTIPLIER FOR DELT    SS FLAG
 ----------------------------------------------------------------------------
        1         1.000000          1                    1.000         SS

 STEADY-STATE SIMULATION



 
 # BAS6 package for MODFLOW-2005 generated by Flopy 3.10.0                       
 THE FREE FORMAT OPTION HAS BEEN SELECTED



                     BOUNDARY ARRAY FOR LAYER   1
 READING ON UNIT   13 WITH FORMAT: (50I10)             



                     BOUNDARY ARRAY FOR LAYER   2
 READING ON UNIT   13 WITH FORMAT: (50I10)             



                     BOUNDARY ARRAY FOR LAYER   3
 READING ON UNIT   13 WITH FORMAT: (50I10)             

 AQUIFER HEAD WILL BE SET TO  -999.99     AT ALL NO-FLOW NODES (IBOUND=0).



                       INITIAL HEAD FOR LAYER   1
 READING ON UNIT   13 WITH FORMAT: (50E15.6)           



                       INITIAL HEAD FOR LAYER   2
 READING ON UNIT   13 WITH FORMAT: (50E15.6)           



                       INITIAL HEAD FOR LAYER   3
 READING ON UNIT   13 WITH FORMAT: (50E15.6)           
 # OC package for MODFLOW-2005 generated by Flopy 3.10.0

 OUTPUT CONTROL IS SPECIFIED ONLY AT TIME STEPS FOR WHICH OUTPUT IS DESIRED
 COMPACT CELL-BY-CELL BUDGET FILES WILL BE WRITTEN
 AUXILIARY DATA WILL BE SAVED IN CELL-BY-CELL BUDGET FILES
 HEAD PRINT FORMAT CODE IS   0    DRAWDOWN PRINT FORMAT CODE IS   0
 HEADS WILL BE SAVED ON UNIT   51    DRAWDOWNS WILL BE SAVED ON UNIT   52

 LPF -- LAYER-PROPERTY FLOW PACKAGE, VERSION 7, 5/2/2005
         INPUT READ FROM UNIT   15
 # LPF package for MODFLOW-2005 generated by Flopy 3.10.0
 CELL-BY-CELL FLOWS WILL BE SAVED ON UNIT   53
 HEAD AT CELLS THAT CONVERT TO DRY= -1.00000E+30
 No named parameters
 STORAGECOEFFICIENT OPTION:
 Read storage coefficient rather than specific storage

   LAYER FLAGS:
 LAYER       LAYTYP        LAYAVG         CHANI        LAYVKA        LAYWET
 ---------------------------------------------------------------------------
    1             1             0     1.000E+00             0             0
    2             1             0     1.000E+00             0             0
    3             1             0     1.000E+00             0             0

   INTERPRETATION OF LAYER FLAGS:
                        INTERBLOCK     HORIZONTAL    DATA IN
         LAYER TYPE   TRANSMISSIVITY   ANISOTROPY   ARRAY VKA   WETTABILITY
 LAYER      (LAYTYP)      (LAYAVG)       (CHANI)      (LAYVKA)      (LAYWET)
 ---------------------------------------------------------------------------
    1   CONVERTIBLE      HARMONIC     1.000E+00    VERTICAL K  NON-WETTABLE
    2   CONVERTIBLE      HARMONIC     1.000E+00    VERTICAL K  NON-WETTABLE
    3   CONVERTIBLE      HARMONIC     1.000E+00    VERTICAL K  NON-WETTABLE

 WETTING CAPABILITY IS NOT ACTIVE IN ANY LAYER



              HYD. COND. ALONG ROWS FOR LAYER   1
 READING ON UNIT   15 WITH FORMAT: (50E15.6)           



                VERTICAL HYD. COND. FOR LAYER   1
 READING ON UNIT   15 WITH FORMAT: (50E15.6)           



              HYD. COND. ALONG ROWS FOR LAYER   2
 READING ON UNIT   15 WITH FORMAT: (50E15.6)           



                VERTICAL HYD. COND. FOR LAYER   2
 READING ON UNIT   15 WITH FORMAT: (50E15.6)           



              HYD. COND. ALONG ROWS FOR LAYER   3
 READING ON UNIT   15 WITH FORMAT: (50E15.6)           



                VERTICAL HYD. COND. FOR LAYER   3
 READING ON UNIT   15 WITH FORMAT: (50E15.6)           

 WEL -- WELL PACKAGE, VERSION 7, 5/2/2005 INPUT READ FROM UNIT   20
 # WEL package for MODFLOW-2005 generated by Flopy 3.10.0
 No named parameters
 MAXIMUM OF      4 ACTIVE WELLS AT ONE TIME


     0 Well parameters

 RIV -- RIVER PACKAGE, VERSION 7, 5/2/2005 INPUT READ FROM UNIT   18
 # RIV package for MODFLOW-2005 generated by Flopy 3.10.0
 No named parameters
 MAXIMUM OF     49 ACTIVE RIVER REACHES AT ONE TIME
 CELL-BY-CELL FLOWS WILL BE SAVED ON UNIT   53


     0 River parameters

 EVT -- EVAPOTRANSPIRATION PACKAGE, VERSION 7, 5/2/2005
         INPUT READ FROM UNIT   22
 # EVT package for MODFLOW-2005 generated by Flopy 3.10.0
 No named parameters
 OPTION 3 -- EVAPOTRANSPIRATION FROM HIGHEST ACTIVE NODE IN EACH VERTICAL COLUMN
 CELL-BY-CELL FLOWS WILL BE SAVED ON UNIT   53


     0 Evapotranspiration parameters

 RCH -- RECHARGE PACKAGE, VERSION 7, 5/2/2005 INPUT READ FROM UNIT   19
 # RCH package for MODFLOW-2005 generated by Flopy 3.10.0
 No named parameters
 OPTION 3 -- RECHARGE TO HIGHEST ACTIVE NODE IN EACH VERTICAL COLUMN
 CELL-BY-CELL FLOWS WILL BE SAVED ON UNIT   53


     0 Recharge parameters

 PCG -- CONJUGATE-GRADIENT SOLUTION PACKAGE, VERSION 7, 5/2/2005
 # PCG package for MODFLOW-2005 generated by Flopy 3.10.0
 MAXIMUM OF   5000 CALLS OF SOLUTION ROUTINE
 MAXIMUM OF    500 INTERNAL ITERATIONS PER CALL TO SOLUTION ROUTINE
 MATRIX PRECONDITIONING TYPE :    1



                                    SOLUTION BY THE CONJUGATE-GRADIENT METHOD
                                   -------------------------------------------
                    MAXIMUM NUMBER OF CALLS TO PCG ROUTINE =     5000
                        MAXIMUM ITERATIONS PER CALL TO PCG =      500
                               MATRIX PRECONDITIONING TYPE =        1
        RELAXATION FACTOR (ONLY USED WITH PRECOND. TYPE 1) =    0.97000E+00
 PARAMETER OF POLYNOMIAL PRECOND. = 2 (2) OR IS CALCULATED :        0
                         HEAD CHANGE CRITERION FOR CLOSURE =    0.10000E-04
                     RESIDUAL CHANGE CRITERION FOR CLOSURE =    0.10000E-04
            PCG HEAD AND RESIDUAL CHANGE PRINTOUT INTERVAL =      999
     PRINTING FROM SOLVER IS LIMITED(1) OR SUPPRESSED (>1) =        3
                            STEADY-STATE DAMPING PARAMETER =    0.10000E-01
                               TRANSIENT DAMPING PARAMETER =    0.10000E-01
1
                            STRESS PERIOD NO.    1, LENGTH =   1.000000    
                            -----------------------------------------------

                              NUMBER OF TIME STEPS =     1

                               MULTIPLIER FOR DELT =     1.000

                            INITIAL TIME STEP SIZE =   1.000000    

 WELL NO.  LAYER   ROW   COL   STRESS RATE         
 --------------------------------------------------
      1      3     22     39      -1500.    
      2      1     13     15      -4500.    
      3      1     25     26       375.0    
      4      3     30     39      -1500.    

      4 WELLS

 REACH NO.  LAYER   ROW   COL     STAGE      CONDUCTANCE     BOTTOM EL.         
 -------------------------------------------------------------------------------
      1      1     25      2       100.5           50.00           98.00    
      2      1     25      3       99.50           50.00           97.00    
      3      1     25      4       98.50           50.00           96.00    
      4      1     25      5       97.50           50.00           95.00    
      5      1     25      6       96.50           50.00           94.00    
      6      1     25      7       95.50           50.00           93.00    
      7      1     25      8       94.50           50.00           92.00    
      8      1     25      9       93.50           50.00           91.00    
      9      1     25     10       92.50           50.00           90.00    
     10      1     25     11       91.50           50.00           89.00    
     11      1     25     12       90.50           50.00           88.00    
     12      1     25     13       89.50           50.00           87.00    
     13      1     25     14       88.50           50.00           86.00    
     14      1     25     15       87.50           50.00           85.00    
     15      1     25     16       86.50           50.00           84.00    
     16      1     25     17       85.50           50.00           83.00    
     17      1     25     18       84.50           50.00           82.00    
     18      1     25     19       83.50           50.00           81.00    
     19      1     25     20       82.50           50.00           80.00    
     20      1     25     21       81.50           50.00           79.00    
     21      1     25     22       80.50           50.00           78.00    
     22      1     25     23       79.50           50.00           77.00    
     23      1     25     24       78.50           50.00           76.00    
     24      1     25     25       77.50           50.00           75.00    
     25      1     25     26       77.40           50.00           74.90    
     26      1     25     27       77.30           50.00           74.80    
     27      1     25     28       77.20           50.00           74.70    
     28      1     25     29       77.10           50.00           74.60    
     29      1     25     30       77.00           50.00           74.50    
     30      1     25     31       76.90           50.00           74.40    
     31      1     25     32       76.80           50.00           74.30    
     32      1     25     33       76.70           50.00           74.20    
     33      1     25     34       76.60           50.00           74.10    
     34      1     25     35       76.50           50.00           74.00    
     35      1     25     36       76.40           50.00           73.90    
     36      1     25     37       76.30           50.00           73.80    
     37      1     25     38       76.20           50.00           73.70    
     38      1     25     39       76.10           50.00           73.60    
     39      1     25     40       76.00           50.00           73.50    
     40      1     25     41       75.90           50.00           73.40    
     41      1     25     42       75.80           50.00           73.30    
     42      1     25     43       75.70           50.00           73.20    
     43      1     25     44       75.60           50.00           73.10    
     44      1     25     45       75.50           50.00           73.00    
     45      1     25     46       75.40           50.00           72.90    
     46      1     25     47       75.30           50.00           72.80    
     47      1     25     48       75.20           50.00           72.70    
     48      1     25     49       75.10           50.00           72.60    
     49      1     25     50       75.00           50.00           72.50    

     49 RIVER REACHES



                         ET SURFACE
 READING ON UNIT   22 WITH FORMAT: (50E15.6)           



            EVAPOTRANSPIRATION RATE
 READING ON UNIT   22 WITH FORMAT: (50E15.6)           

         EXTINCTION DEPTH =   10.0000    



                           RECHARGE
 READING ON UNIT   19 WITH FORMAT: (50E15.6)           
 
 SOLVING FOR HEAD 

 OUTPUT CONTROL FOR STRESS PERIOD    1   TIME STEP    1
    SAVE HEAD FOR ALL LAYERS
    SAVE DRAWDOWN FOR ALL LAYERS
    SAVE BUDGET
    PRINT HEAD FOR ALL LAYERS
    PRINT BUDGET
 UBDSV2 SAVING "   CONSTANT HEAD" ON UNIT  53 AT TIME STEP  1, STRESS PERIOD   1
 UBDSV1 SAVING "FLOW RIGHT FACE " ON UNIT  53 AT TIME STEP  1, STRESS PERIOD   1
 UBDSV1 SAVING "FLOW FRONT FACE " ON UNIT  53 AT TIME STEP  1, STRESS PERIOD   1
 UBDSV1 SAVING "FLOW LOWER FACE " ON UNIT  53 AT TIME STEP  1, STRESS PERIOD   1
 UBDSV4 SAVING "   RIVER LEAKAGE" ON UNIT  53 AT TIME STEP  1, STRESS PERIOD   1
 UBDSV3 SAVING "              ET" ON UNIT  53 AT TIME STEP  1, STRESS PERIOD   1
 UBDSV3 SAVING "        RECHARGE" ON UNIT  53 AT TIME STEP  1, STRESS PERIOD   1
1
              HEAD IN LAYER   1 AT END OF TIME STEP   1 IN STRESS PERIOD    1
  ---------------------------------------------------------------------------

            1           2           3           4           5           6           7           8           9          10
           11          12          13          14          15          16          17          18          19          20
           21          22          23          24          25          26          27          28          29          30
           31          32          33          34          35          36          37          38          39          40
           41          42          43          44          45          46          47          48          49          50
 ........................................................................................................................
   1  -1000.0     -1000.0     -1000.0     -1000.0     -1000.0     -1000.0     -1000.0     -1000.0     -1000.0     -1000.0    
      -1000.0     -1000.0     -1000.0     -1000.0     -1000.0     -1000.0     -1000.0     -1000.0     -1000.0     -1000.0    
      -1000.0     -1000.0     -1000.0     -1000.0     -1000.0     -1000.0     -1000.0     -1000.0     -1000.0     -1000.0    
      -1000.0     -1000.0     -1000.0     -1000.0     -1000.0     -1000.0     -1000.0     -1000.0     -1000.0     -1000.0    
      -1000.0     -1000.0     -1000.0     -1000.0     -1000.0     -1000.0     -1000.0     -1000.0     -1000.0       70.00    
   2  -1000.0     -1000.0     -1000.0     -1000.0     -1000.0       78.85       78.72       78.53       78.31       78.07    
        77.89       77.68       77.44       77.20       76.94       76.68       76.44       76.21       76.00       75.81    
        75.64       75.48       75.32       75.17       75.01       74.86       74.70       74.53       74.37       74.20    
        74.02       73.84       73.65       73.46       73.27       73.07       72.87       72.67       72.46       72.25    
        72.03       71.82       71.60       71.38       71.15       70.93       70.70       70.47       70.23       70.00    
   3  -1000.0     -1000.0     -1000.0     -1000.0       79.04       78.91       78.74       78.53       78.29       78.10    
        77.89       77.67       77.43       77.18       76.92       76.66       76.42       76.20       75.99       75.80    
        75.63       75.47       75.32       75.17       75.02       74.86       74.70       74.54       74.37       74.20    
        74.02       73.84       73.66       73.47       73.27       73.08       72.88       72.67       72.46       72.25    
        72.04       71.82       71.60       71.38       71.15       70.93       70.70       70.47       70.24       70.00    
   4  -1000.0     -1000.0     -1000.0       79.24       79.11       78.94       78.75       78.52       78.32       78.11    
        77.89       77.65       77.40       77.15       76.88       76.62       76.38       76.16       75.96       75.78    
        75.62       75.47       75.32       75.17       75.02       74.87       74.71       74.55       74.38       74.21    
        74.04       73.86       73.67       73.48       73.28       73.09       72.88       72.68       72.47       72.26    
        72.04       71.83       71.61       71.38       71.16       70.93       70.70       70.47       70.24       70.00    
   5  -1000.0     -1000.0       79.43       79.31       79.16       78.98       78.75       78.56       78.35       78.12    
        77.88       77.62       77.35       77.09       76.82       76.56       76.32       76.11       75.92       75.74    
        75.60       75.46       75.31       75.17       75.03       74.88       74.72       74.56       74.40       74.23    
        74.05       73.87       73.69       73.50       73.30       73.10       72.90       72.69       72.48       72.27    
        72.05       71.84       71.61       71.39       71.16       70.94       70.71       70.47       70.24       70.00    
   6  -1000.0       79.58       79.49       79.36       79.20       78.99       78.81       78.60       78.37       78.12    
        77.85       77.57       77.28       77.00       76.72       76.46       76.24       76.04       75.86       75.70    
        75.57       75.44       75.31       75.18       75.04       74.90       74.74       74.59       74.42       74.25    
        74.08       73.90       73.71       73.52       73.32       73.12       72.92       72.71       72.50       72.28    
        72.07       71.85       71.63       71.40       71.17       70.94       70.71       70.48       70.24       70.00    
   7  -1000.0       79.61       79.54       79.41       79.23       79.06       78.86       78.63       78.38       78.10    
        77.81       77.49       77.18       76.87       76.59       76.33       76.12       75.94       75.79       75.65    
        75.54       75.43       75.31       75.19       75.06       74.92       74.77       74.62       74.45       74.28    
        74.11       73.93       73.74       73.55       73.35       73.15       72.94       72.73       72.52       72.30    
        72.09       71.86       71.64       71.41       71.18       70.95       70.72       70.48       70.24       70.00    
   8  -1000.0       79.66       79.59       79.45       79.30       79.12       78.91       78.67       78.39       78.08    
        77.75       77.40       77.04       76.70       76.40       76.15       75.97       75.83       75.71       75.60    
        75.52       75.42       75.32       75.21       75.09       74.95       74.81       74.66       74.49       74.32    
        74.15       73.96       73.77       73.58       73.38       73.18       72.97       72.76       72.55       72.33    
        72.11       71.88       71.66       71.43       71.20       70.96       70.73       70.49       70.24       70.00    
   9  -1000.0       79.72       79.65       79.53       79.38       79.20       78.97       78.71       78.41       78.06    
        77.69       77.28       76.86       76.46       76.13       75.90       75.77       75.68       75.62       75.55    
        75.50       75.43       75.34       75.24       75.13       75.00       74.86       74.70       74.54       74.37    
        74.19       74.01       73.82       73.62       73.42       73.22       73.01       72.79       72.58       72.36    
        72.13       71.91       71.68       71.45       71.21       70.98       70.74       70.49       70.25       70.00    
  10  -1000.0       79.80       79.73       79.62       79.47       79.28       79.05       78.77       78.44       78.05    
        77.62       77.14       76.63       76.13       75.74       75.56       75.52       75.52       75.53       75.51    
        75.49       75.45       75.38       75.29       75.18       75.05       74.91       74.76       74.60       74.43    
        74.25       74.06       73.87       73.67       73.47       73.26       73.05       72.83       72.61       72.39    
        72.17       71.94       71.71       71.47       71.23       70.99       70.75       70.50       70.25       70.00    
  11  -1000.0       79.88       79.83       79.72       79.58       79.38       79.14       78.84       78.49       78.07    
        77.58       77.00       76.35       75.66       75.10       75.08       75.22       75.37       75.46       75.49    
        75.51       75.49       75.44       75.36       75.25       75.13       74.99       74.84       74.67       74.50    
        74.31       74.12       73.93       73.73       73.52       73.31       73.09       72.88       72.66       72.43    
        72.20       71.97       71.74       71.50       71.26       71.01       70.76       70.51       70.26       70.00    
  12  -1000.0       80.00       79.95       79.85       79.70       79.50       79.26       78.95       78.58       78.13    
        77.59       76.91       76.07       75.01       73.90       74.42       74.93       75.26       75.45       75.53    
        75.58       75.57       75.52       75.45       75.34       75.22       75.08       74.92       74.75       74.58    
        74.39       74.20       74.00       73.79       73.58       73.37       73.15       72.93       72.70       72.48    
        72.25       72.01       71.77       71.53       71.29       71.04       70.78       70.53       70.26       70.00    
  13  -1000.0       80.14       80.09       80.00       79.85       79.65       79.41       79.10       78.72       78.26    
        77.69       76.96       75.96       74.36       70.95       73.76       74.81       75.30       75.53       75.64    
        75.69       75.69       75.64       75.56       75.46       75.33       75.18       75.02       74.85       74.66    
        74.47       74.28       74.07       73.86       73.65       73.43       73.21       72.99       72.76       72.53    
        72.30       72.06       71.82       71.57       71.32       71.06       70.80       70.54       70.27       70.00    
  14  -1000.0       80.31       80.26       80.17       80.02       79.83       79.59       79.28       78.92       78.47    
        77.93       77.25       76.41       75.35       74.25       74.76       75.26       75.58       75.76       75.83    
        75.87       75.85       75.80       75.71       75.59       75.46       75.30       75.13       74.95       74.77    
        74.57       74.37       74.16       73.94       73.73       73.51       73.28       73.06       72.83       72.59    
        72.35       72.11       71.87       71.62       71.36       71.10       70.83       70.56       70.28       70.00    
  15  -1000.0       80.49       80.45       80.36       80.22       80.03       79.80       79.51       79.16       78.75    
        78.26       77.68       77.03       76.34       75.78       75.75       75.88       76.01       76.08       76.09    
        76.10       76.06       75.98       75.88       75.75       75.60       75.44       75.26       75.07       74.88    
        74.68       74.47       74.25       74.03       73.81       73.59       73.36       73.13       72.90       72.66    
        72.42       72.18       71.93       71.67       71.41       71.14       70.86       70.58       70.29       70.00    
  16  -1000.0       80.70       80.66       80.57       80.44       80.26       80.04       79.77       79.45       79.07    
        78.64       78.16       77.64       77.15       76.75       76.56       76.51       76.49       76.46       76.41    
        76.37       76.30       76.20       76.08       75.93       75.77       75.59       75.40       75.21       75.00    
        74.79       74.58       74.36       74.13       73.91       73.68       73.45       73.22       72.98       72.74    
        72.50       72.25       72.00       71.74       71.47       71.19       70.90       70.61       70.31       70.00    
  17  -1000.0       80.92       80.88       80.80       80.68       80.51       80.30       80.05       79.76       79.42    
        79.04       78.63       78.21       77.81       77.48       77.24       77.09       76.98       76.88       76.76    
        76.68       76.57       76.44       76.29       76.13       75.95       75.76       75.56       75.35       75.13    
        74.92       74.69       74.47       74.24       74.01       73.78       73.55       73.32       73.08       72.84    
        72.59       72.34       72.08       71.81       71.54       71.25       70.95       70.64       70.32       70.00    
  18  -1000.0       81.16       81.13       81.05       80.93       80.78       80.58       80.35       80.08       79.78    
        79.44       79.09       78.73       78.39       78.08       77.82       77.62       77.45       77.30       77.13    
        77.01       76.87       76.70       76.53       76.34       76.14       75.93       75.72       75.50       75.28    
        75.05       74.82       74.59       74.36       74.13       73.90       73.66       73.42       73.19       72.94    
        72.70       72.44       72.18       71.91       71.62       71.32       71.01       70.68       70.35       70.00    
  19  -1000.0       81.42       81.38       81.31       81.20       81.05       80.87       80.66       80.41       80.14    
        79.84       79.52       79.20       78.89       78.60       78.33       78.11       77.92       77.74       77.53    
        77.36       77.17       76.98       76.78       76.56       76.35       76.12       75.89       75.66       75.43    
        75.19       74.96       74.72       74.49       74.26       74.02       73.79       73.55       73.31       73.07    
        72.82       72.56       72.30       72.02       71.73       71.42       71.09       70.74       70.37       70.00    
  20  -1000.0       81.68       81.65       81.58       81.48       81.34       81.17       80.97       80.75       80.49    
        80.22       79.93       79.64       79.35       79.06       78.80       78.57       78.38       78.20       77.95    
        77.72       77.49       77.26       77.03       76.80       76.56       76.32       76.08       75.83       75.59    
        75.34       75.10       74.87       74.63       74.39       74.16       73.92       73.69       73.45       73.21    
        72.96       72.71       72.44       72.16       71.86       71.53       71.18       70.81       70.41       70.00    
  21  -1000.0       81.96       81.92       81.86       81.76       81.64       81.48       81.29       81.08       80.84    
        80.59       80.32       80.04       79.76       79.49       79.22       78.99       78.81       78.72       78.45    
        78.09       77.80       77.54       77.29       77.04       76.79       76.53       76.27       76.01       75.75    
        75.50       75.26       75.02       74.78       74.55       74.31       74.08       73.85       73.61       73.38    
        73.13       72.88       72.61       72.33       72.02       71.68       71.31       70.90       70.46       70.00    
  22  -1000.0       82.24       82.20       82.14       82.05       81.93       81.78       81.61       81.41       81.19    
        80.95       80.69       80.42       80.15       79.87       79.60       79.35       79.16       79.05       78.75    
        78.38       78.08       77.80       77.54       77.29       77.03       76.75       76.47       76.19       75.92    
        75.67       75.42       75.18       74.95       74.72       74.49       74.26       74.03       73.80       73.57    
        73.33       73.08       72.82       72.53       72.22       71.86       71.47       71.02       70.53       70.00    
  23  -1000.0       82.52       82.49       82.43       82.35       82.23       82.09       81.93       81.73       81.52    
        81.29       81.04       80.78       80.51       80.23       79.94       79.67       79.42       79.18       78.86    
        78.61       78.33       78.06       77.79       77.54       77.30       76.99       76.67       76.37       76.10    
        75.84       75.59       75.36       75.13       74.90       74.68       74.46       74.23       74.01       73.79    
        73.56       73.32       73.06       72.78       72.46       72.10       71.69       71.20       70.63       70.00    
  24  -1000.0       82.81       82.78       82.73       82.64       82.53       82.40       82.24       82.06       81.85    
        81.63       81.38       81.12       80.85       80.56       80.26       79.97       79.68       79.38       79.04    
        78.86       78.60       78.31       78.03       77.80       77.64       77.23       76.86       76.55       76.27    
        76.01       75.77       75.54       75.32       75.10       74.89       74.68       74.47       74.26       74.04    
        73.82       73.60       73.35       73.08       72.77       72.42       71.98       71.45       70.80       70.00    
  25  -1000.0       83.10       83.08       83.02       82.94       82.84       82.71       82.55       82.37       82.17    
        81.95       81.71       81.45       81.18       80.88       80.57       80.26       79.95       79.62       79.27    
        79.18       78.90       78.55       78.22       78.02       78.25       77.46       77.02       76.69       76.42    
        76.18       75.95       75.74       75.53       75.32       75.12       74.92       74.73       74.53       74.33    
        74.13       73.92       73.69       73.44       73.16       72.82       72.38       71.83       71.10       70.00    
  26  -1000.0       83.10       83.07       83.02       82.94       82.84       82.71       82.56       82.38       82.19    
        81.97       81.73       81.47       81.19       80.89       80.56       80.24       79.91       79.58       79.22    
        79.04       78.79       78.50       78.22       77.99       77.81       77.39       77.01       76.68       76.39    
        76.13       75.88       75.64       75.41       75.18       74.96       74.74       74.52       74.31       74.09    
        73.86       73.63       73.38       73.10       72.79       72.43       71.99       71.46       70.80       70.00    
  27  -1000.0       83.09       83.07       83.01       82.94       82.84       82.71       82.56       82.39       82.20    
        81.98       81.74       81.48       81.19       80.89       80.56       80.23       79.89       79.55       79.19    
        78.97       78.72       78.44       78.17       77.91       77.64       77.31       76.97       76.65       76.35    
        76.07       75.81       75.55       75.30       75.06       74.82       74.59       74.35       74.12       73.88    
        73.64       73.39       73.12       72.83       72.50       72.13       71.71       71.21       70.64       70.00    
  28  -1000.0       83.09       83.06       83.01       82.94       82.84       82.72       82.57       82.40       82.20    
        81.99       81.75       81.49       81.20       80.89       80.56       80.22       79.88       79.53       79.18    
        78.93       78.67       78.40       78.12       77.84       77.55       77.24       76.92       76.61       76.31    
        76.03       75.75       75.48       75.22       74.96       74.71       74.45       74.20       73.96       73.70    
        73.45       73.18       72.90       72.60       72.27       71.91       71.50       71.05       70.54       70.00    
  29  -1000.0       83.08       83.06       83.01       82.94       82.84       82.72       82.57       82.40       82.21    
        81.99       81.75       81.49       81.20       80.89       80.56       80.22       79.87       79.52       79.17    
        78.91       78.64       78.37       78.08       77.79       77.50       77.19       76.88       76.57       76.27    
        75.98       75.70       75.42       75.14       74.87       74.61       74.35       74.08       73.82       73.56    
        73.29       73.02       72.73       72.42       72.10       71.74       71.35       70.93       70.48       70.00    
  30  -1000.0       83.08       83.06       83.01       82.94       82.84       82.72       82.57       82.41       82.21    
        82.00       81.76       81.49       81.21       80.89       80.55       80.21       79.87       79.52       79.17    
        78.90       78.62       78.34       78.05       77.76       77.46       77.15       76.85       76.54       76.24    
        75.94       75.65       75.37       75.08       74.81       74.53       74.26       73.98       73.71       73.44    
        73.17       72.88       72.59       72.28       71.96       71.61       71.24       70.85       70.43       70.00    
  31  -1000.0       83.08       83.06       83.01       82.94       82.84       82.72       82.58       82.41       82.22    
        82.00       81.76       81.50       81.21       80.89       80.55       80.21       79.87       79.52       79.17    
        78.89       78.61       78.32       78.03       77.73       77.43       77.13       76.82       76.51       76.21    
        75.91       75.62       75.32       75.04       74.75       74.47       74.19       73.91       73.63       73.35    
        73.07       72.78       72.48       72.18       71.85       71.52       71.16       70.79       70.40       70.00    
  32  -1000.0       83.08       83.06       83.01       82.94       82.84       82.72       82.58       82.41       82.22    
        82.00       81.76       81.50       81.21       80.90       80.56       80.21       79.87       79.52       79.17    
        78.89       78.60       78.31       78.02       77.72       77.41       77.11       76.80       76.49       76.19    
        75.89       75.59       75.29       75.00       74.71       74.42       74.13       73.84       73.56       73.27    
        72.99       72.70       72.40       72.09       71.77       71.44       71.10       70.74       70.38       70.00    
  33  -1000.0       83.08       83.05       83.01       82.93       82.84       82.72       82.58       82.41       82.22    
        82.00       81.76       81.50       81.21       80.90       80.56       80.22       79.87       79.52       79.18    
        78.89       78.60       78.30       78.01       77.70       77.40       77.09       76.78       76.48       76.17    
        75.87       75.57       75.27       74.97       74.67       74.38       74.09       73.80       73.51       73.22    
        72.93       72.63       72.33       72.03       71.71       71.39       71.06       70.71       70.36       70.00    
  34  -1000.0       83.08       83.05       83.00       82.93       82.84       82.72       82.58       82.41       82.22    
        82.00       81.76       81.50       81.21       80.90       80.56       80.22       79.87       79.53       79.18    
        78.89       78.60       78.30       78.00       77.70       77.39       77.08       76.77       76.47       76.16    
        75.86       75.55       75.25       74.95       74.65       74.35       74.06       73.76       73.47       73.18    
        72.88       72.59       72.29       71.98       71.67       71.35       71.02       70.69       70.35       70.00    
  35  -1000.0       83.07       83.05       83.00       82.93       82.84       82.72       82.57       82.41       82.22    
        82.00       81.76       81.50       81.21       80.90       80.56       80.22       79.88       79.53       79.19    
        78.89       78.60       78.30       78.00       77.69       77.38       77.08       76.77       76.46       76.15    
        75.85       75.54       75.24       74.93       74.63       74.33       74.04       73.74       73.44       73.15    
        72.85       72.55       72.25       71.95       71.64       71.32       71.00       70.67       70.34       70.00    
  36  -1000.0       83.07       83.05       83.00       82.93       82.83       82.72       82.57       82.41       82.22    
        82.00       81.76       81.50       81.21       80.90       80.56       80.22       79.88       79.54       79.19    
        78.90       78.60       78.30       78.00       77.69       77.38       77.07       76.77       76.46       76.15    
        75.84       75.53       75.23       74.92       74.62       74.32       74.02       73.72       73.42       73.12    
        72.83       72.53       72.22       71.92       71.61       71.30       70.98       70.66       70.33       70.00    
  37  -1000.0       83.07       83.05       83.00       82.93       82.83       82.71       82.57       82.40       82.21    
        82.00       81.76       81.50       81.21       80.90       80.56       80.22       79.88       79.54       79.20    
        78.90       78.60       78.30       78.00       77.69       77.38       77.07       76.77       76.46       76.15    
        75.84       75.53       75.22       74.92       74.61       74.31       74.01       73.71       73.41       73.11    
        72.81       72.51       72.21       71.90       71.59       71.28       70.97       70.65       70.33       70.00    
  38  -1000.0       83.07       83.04       83.00       82.92       82.83       82.71       82.57       82.40       82.21    
        82.00       81.76       81.50       81.21       80.90       80.56       80.23       79.89       79.55       79.21    
        78.91       78.61       78.30       78.00       77.69       77.38       77.08       76.77       76.46       76.15    
        75.84       75.53       75.22       74.91       74.61       74.30       74.00       73.70       73.40       73.10    
        72.80       72.49       72.19       71.89       71.58       71.27       70.96       70.64       70.32       70.00    
  39  -1000.0       83.07       83.04       82.99       82.92       82.82       82.70       82.56       82.39       82.21    
        81.99       81.76       81.50       81.21       80.90       80.57       80.23       79.89       79.55       79.21    
        78.91       78.61       78.31       78.00       77.69       77.39       77.08       76.77       76.46       76.15    
        75.84       75.53       75.22       74.91       74.61       74.30       74.00       73.69       73.39       73.09    
        72.79       72.49       72.18       71.88       71.57       71.26       70.95       70.64       70.32       70.00    
  40  -1000.0       83.07       83.04       82.99       82.91       82.82       82.70       82.55       82.39       82.20    
        81.99       81.75       81.49       81.21       80.90       80.57       80.23       79.89       79.56       79.22    
        78.92       78.62       78.31       78.01       77.70       77.39       77.08       76.77       76.46       76.15    
        75.84       75.53       75.22       74.91       74.61       74.30       74.00       73.69       73.39       73.09    
        72.78       72.48       72.18       71.87       71.57       71.26       70.95       70.64       70.32       70.00    
  41  -1000.0       83.07       83.04       82.99       82.91       82.81       82.69       82.55       82.38       82.19    
        81.98       81.75       81.49       81.21       80.90       80.57       80.23       79.90       79.56       79.22    
        78.92       78.62       78.32       78.01       77.70       77.39       77.08       76.77       76.46       76.15    
        75.84       75.53       75.22       74.92       74.61       74.30       74.00       73.69       73.39       73.08    
        72.78       72.48       72.17       71.87       71.56       71.26       70.95       70.63       70.32       70.00    
  42  -1000.0       83.08       83.04       82.98       82.90       82.80       82.68       82.54       82.37       82.18    
        81.97       81.74       81.48       81.20       80.90       80.56       80.23       79.90       79.56       79.23    
        78.93       78.62       78.32       78.01       77.70       77.40       77.09       76.78       76.47       76.16    
        75.85       75.54       75.23       74.92       74.61       74.30       74.00       73.69       73.39       73.08    
        72.78       72.48       72.17       71.87       71.56       71.25       70.94       70.63       70.32       70.00    
  43  -1000.0       83.10       83.06       82.97       82.89       82.79       82.66       82.52       82.36       82.17    
        81.96       81.73       81.48       81.20       80.89       80.56       80.23       79.90       79.57       79.23    
        78.93       78.63       78.32       78.02       77.71       77.40       77.09       76.78       76.47       76.16    
        75.85       75.54       75.23       74.92       74.61       74.31       74.00       73.69       73.39       73.08    
        72.78       72.48       72.17       71.87       71.56       71.25       70.94       70.63       70.32       70.00    
  44  -1000.0       83.11       83.07       82.99       82.87       82.77       82.65       82.50       82.34       82.16    
        81.95       81.72       81.47       81.19       80.89       80.56       80.23       79.90       79.57       79.24    
        78.94       78.63       78.33       78.02       77.71       77.40       77.09       76.78       76.47       76.16    
        75.85       75.54       75.23       74.92       74.62       74.31       74.00       73.70       73.39       73.09    
        72.78       72.48       72.17       71.87       71.56       71.25       70.94       70.63       70.32       70.00    
  45  -1000.0       83.12       83.07       82.99       82.88       82.75       82.62       82.48       82.32       82.14    
        81.94       81.71       81.46       81.19       80.89       80.56       80.23       79.90       79.57       79.24    
        78.94       78.63       78.33       78.02       77.71       77.40       77.09       76.78       76.47       76.16    
        75.85       75.54       75.23       74.93       74.62       74.31       74.00       73.70       73.39       73.09    
        72.78       72.48       72.17       71.87       71.56       71.25       70.94       70.63       70.32       70.00    
  46  -1000.0     -1000.0       83.05       82.98       82.88       82.75       82.60       82.46       82.30       82.12    
        81.93       81.70       81.46       81.18       80.88       80.56       80.23       79.90       79.57       79.24    
        78.94       78.64       78.33       78.02       77.72       77.41       77.10       76.79       76.48       76.17    
        75.86       75.55       75.24       74.93       74.62       74.31       74.01       73.70       73.39       73.09    
        72.78       72.48       72.17       71.87       71.56       71.25       70.94       70.63       70.32       70.00    
  47  -1000.0     -1000.0     -1000.0       82.95       82.86       82.74       82.60       82.43       82.27       82.10    
        81.91       81.69       81.45       81.18       80.88       80.56       80.23       79.90       79.57       79.24    
        78.94       78.64       78.33       78.03       77.72       77.41       77.10       76.79       76.48       76.17    
        75.86       75.55       75.24       74.93       74.62       74.31       74.01       73.70       73.39       73.09    
        72.78       72.48       72.17       71.87       71.56       71.25       70.94       70.63       70.32       70.00    
  48  -1000.0     -1000.0     -1000.0     -1000.0       82.82       82.73       82.60       82.44       82.24       82.08    
        81.89       81.68       81.44       81.17       80.88       80.55       80.23       79.90       79.57       79.25    
        78.94       78.64       78.33       78.03       77.72       77.41       77.10       76.79       76.48       76.17    
        75.86       75.55       75.24       74.93       74.62       74.32       74.01       73.70       73.40       73.09    
        72.79       72.48       72.17       71.87       71.56       71.25       70.94       70.63       70.32       70.00    
  49  -1000.0     -1000.0     -1000.0     -1000.0     -1000.0       82.69       82.59       82.44       82.26       82.04    
        81.88       81.67       81.44       81.17       80.88       80.55       80.23       79.90       79.57       79.25    
        78.94       78.64       78.33       78.03       77.72       77.41       77.10       76.79       76.48       76.17    
        75.86       75.55       75.24       74.93       74.62       74.32       74.01       73.70       73.40       73.09    
        72.79       72.48       72.17       71.87       71.56       71.25       70.94       70.63       70.32       70.00    
  50  -1000.0     -1000.0     -1000.0     -1000.0     -1000.0     -1000.0     -1000.0     -1000.0     -1000.0     -1000.0    
      -1000.0     -1000.0     -1000.0     -1000.0     -1000.0     -1000.0     -1000.0     -1000.0     -1000.0     -1000.0    
      -1000.0     -1000.0     -1000.0     -1000.0     -1000.0     -1000.0     -1000.0     -1000.0     -1000.0     -1000.0    
      -1000.0     -1000.0     -1000.0     -1000.0     -1000.0     -1000.0     -1000.0     -1000.0     -1000.0     -1000.0    
      -1000.0     -1000.0     -1000.0     -1000.0     -1000.0     -1000.0     -1000.0     -1000.0     -1000.0       70.00    
1
              HEAD IN LAYER   2 AT END OF TIME STEP   1 IN STRESS PERIOD    1
  ---------------------------------------------------------------------------

            1           2           3           4           5           6           7           8           9          10
           11          12          13          14          15          16          17          18          19          20
           21          22          23          24          25          26          27          28          29          30
           31          32          33          34          35          36          37          38          39          40
           41          42          43          44          45          46          47          48          49          50
 ........................................................................................................................
   1  -1000.0     -1000.0     -1000.0     -1000.0     -1000.0     -1000.0     -1000.0     -1000.0     -1000.0     -1000.0    
      -1000.0     -1000.0     -1000.0     -1000.0     -1000.0     -1000.0     -1000.0     -1000.0     -1000.0     -1000.0    
      -1000.0     -1000.0     -1000.0     -1000.0     -1000.0     -1000.0     -1000.0     -1000.0     -1000.0     -1000.0    
      -1000.0     -1000.0     -1000.0     -1000.0     -1000.0     -1000.0     -1000.0     -1000.0     -1000.0     -1000.0    
      -1000.0     -1000.0     -1000.0     -1000.0     -1000.0     -1000.0     -1000.0     -1000.0     -1000.0       70.00    
   2  -1000.0     -1000.0     -1000.0     -1000.0     -1000.0     -1000.0     -1000.0       78.53       78.31       78.07    
        77.89       77.68       77.44       77.20       76.94       76.68       76.44       76.21       76.00       75.81    
        75.62       75.44       75.27       75.10       74.93       74.76       74.59       74.41       74.23       74.05    
        73.86       73.67       73.48       73.29       73.09       72.89       72.69       72.48       72.28       72.08    
        71.87       71.66       71.46       71.25       71.04       70.84       70.63       70.42       70.21       70.00    
   3  -1000.0     -1000.0     -1000.0     -1000.0     -1000.0     -1000.0       78.74       78.53       78.29       78.10    
        77.89       77.67       77.43       77.18       76.92       76.66       76.42       76.20       75.99       75.80    
        75.61       75.44       75.27       75.10       74.93       74.76       74.59       74.41       74.23       74.05    
        73.87       73.68       73.48       73.29       73.09       72.89       72.69       72.49       72.28       72.08    
        71.87       71.67       71.46       71.25       71.04       70.84       70.63       70.42       70.21       70.00    
   4  -1000.0     -1000.0     -1000.0     -1000.0     -1000.0       78.94       78.75       78.52       78.32       78.11    
        77.89       77.65       77.40       77.15       76.88       76.62       76.38       76.16       75.96       75.78    
        75.60       75.43       75.26       75.10       74.93       74.77       74.59       74.42       74.24       74.06    
        73.87       73.68       73.49       73.29       73.09       72.89       72.69       72.49       72.28       72.08    
        71.87       71.67       71.46       71.25       71.04       70.84       70.63       70.42       70.21       70.00    
   5  -1000.0     -1000.0     -1000.0     -1000.0       79.16       78.98       78.75       78.56       78.35       78.12    
        77.88       77.62       77.35       77.09       76.82       76.56       76.32       76.11       75.92       75.74    
        75.58       75.42       75.26       75.10       74.94       74.77       74.60       74.43       74.25       74.07    
        73.88       73.69       73.50       73.30       73.10       72.90       72.69       72.49       72.28       72.08    
        71.87       71.67       71.46       71.25       71.04       70.84       70.63       70.42       70.21       70.00    
   6  -1000.0     -1000.0     -1000.0       79.36       79.20       78.99       78.81       78.60       78.37       78.12    
        77.85       77.57       77.28       77.00       76.72       76.46       76.24       76.04       75.86       75.70    
        75.55       75.40       75.25       75.10       74.95       74.78       74.62       74.44       74.27       74.08    
        73.89       73.70       73.51       73.31       73.11       72.90       72.70       72.49       72.29       72.08    
        71.87       71.67       71.46       71.25       71.04       70.83       70.63       70.42       70.21       70.00    
   7  -1000.0     -1000.0       79.54       79.41       79.23       79.06       78.86       78.63       78.38       78.10    
        77.81       77.49       77.18       76.87       76.59       76.33       76.12       75.94       75.79       75.65    
        75.52       75.39       75.25       75.11       74.96       74.80       74.63       74.46       74.28       74.10    
        73.91       73.72       73.52       73.32       73.11       72.91       72.70       72.50       72.29       72.08    
        71.87       71.67       71.46       71.25       71.04       70.83       70.63       70.42       70.21       70.00    
   8  -1000.0       79.66       79.59       79.45       79.30       79.12       78.91       78.67       78.39       78.08    
        77.75       77.40       77.04       76.70       76.40       76.15       75.97       75.83       75.71       75.60    
        75.49       75.38       75.26       75.12       74.98       74.82       74.66       74.49       74.31       74.12    
        73.93       73.74       73.53       73.33       73.13       72.92       72.71       72.50       72.29       72.08    
        71.87       71.66       71.46       71.25       71.04       70.83       70.63       70.42       70.21       70.00    
   9  -1000.0       79.72       79.65       79.53       79.38       79.20       78.97       78.71       78.41       78.06    
        77.69       77.28       76.86       76.46       76.13       75.90       75.77       75.68       75.62       75.55    
        75.47       75.38       75.27       75.15       75.01       74.86       74.69       74.52       74.34       74.15    
        73.96       73.76       73.55       73.35       73.14       72.93       72.72       72.50       72.29       72.08    
        71.87       71.66       71.46       71.25       71.04       70.83       70.62       70.42       70.21       70.00    
  10  -1000.0       79.80       79.73       79.62       79.47       79.28       79.05       78.77       78.44       78.05    
        77.62       77.14       76.63       76.13       75.74       75.56       75.52       75.52       75.53       75.51    
        75.46       75.39       75.30       75.18       75.05       74.90       74.74       74.56       74.38       74.19    
        73.99       73.78       73.58       73.36       73.15       72.94       72.72       72.51       72.29       72.08    
        71.87       71.66       71.45       71.25       71.04       70.83       70.62       70.42       70.21       70.00    
  11  -1000.0       79.88       79.83       79.72       79.58       79.38       79.14       78.84       78.49       78.07    
        77.58       77.00       76.35       75.65       75.10       75.08       75.22       75.37       75.46       75.49    
        75.48       75.43       75.35       75.24       75.11       74.96       74.79       74.61       74.43       74.23    
        74.02       73.82       73.60       73.38       73.17       72.95       72.73       72.51       72.29       72.08    
        71.87       71.66       71.45       71.24       71.04       70.83       70.62       70.42       70.21       70.00    
  12  -1000.0       80.00       79.95       79.85       79.70       79.50       79.26       78.95       78.58       78.13    
        77.59       76.91       76.07       75.01       73.90       74.42       74.93       75.26       75.45       75.53    
        75.54       75.51       75.43       75.32       75.18       75.03       74.86       74.68       74.48       74.28    
        74.07       73.85       73.63       73.41       73.18       72.96       72.73       72.51       72.29       72.08    
        71.86       71.65       71.45       71.24       71.03       70.83       70.62       70.41       70.21       70.00    
  13  -1000.0       80.14       80.09       80.00       79.85       79.65       79.41       79.10       78.72       78.26    
        77.69       76.96       75.96       74.35       70.96       73.76       74.81       75.30       75.53       75.64    
        75.66       75.62       75.54       75.42       75.28       75.12       74.94       74.75       74.55       74.33    
        74.11       73.89       73.66       73.43       73.20       72.97       72.74       72.51       72.29       72.07    
        71.86       71.65       71.44       71.23       71.03       70.82       70.62       70.41       70.21       70.00    
  14  -1000.0       80.31       80.26       80.17       80.02       79.83       79.59       79.28       78.92       78.47    
        77.93       77.25       76.41       75.35       74.25       74.76       75.26       75.58       75.76       75.83    
        75.83       75.77       75.68       75.55       75.40       75.22       75.03       74.83       74.62       74.40    
        74.17       73.93       73.69       73.45       73.21       72.97       72.74       72.51       72.28       72.06    
        71.85       71.64       71.43       71.23       71.03       70.82       70.62       70.41       70.21       70.00    
  15  -1000.0       80.49       80.45       80.36       80.22       80.03       79.80       79.51       79.16       78.75    
        78.26       77.68       77.03       76.34       75.78       75.75       75.88       76.01       76.08       76.09    
        76.05       75.97       75.85       75.70       75.53       75.34       75.14       74.93       74.70       74.47    
        74.23       73.98       73.73       73.48       73.23       72.98       72.74       72.50       72.27       72.05    
        71.84       71.63       71.43       71.22       71.02       70.82       70.62       70.41       70.21       70.00    
  16  -1000.0       80.70       80.66       80.57       80.44       80.26       80.04       79.77       79.45       79.07    
        78.64       78.16       77.64       77.15       76.75       76.56       76.51       76.49       76.46       76.41    
        76.32       76.20       76.05       75.88       75.69       75.48       75.26       75.03       74.79       74.54    
        74.29       74.03       73.77       73.51       73.25       72.99       72.73       72.49       72.26       72.03    
        71.82       71.62       71.42       71.22       71.02       70.82       70.62       70.42       70.21       70.00    
  17  -1000.0       80.92       80.88       80.80       80.68       80.51       80.30       80.05       79.76       79.42    
        79.04       78.63       78.21       77.81       77.48       77.24       77.09       76.98       76.88       76.76    
        76.62       76.46       76.27       76.07       75.85       75.63       75.39       75.14       74.89       74.63    
        74.36       74.09       73.81       73.54       73.26       72.99       72.73       72.47       72.23       72.01    
        71.80       71.60       71.41       71.22       71.02       70.83       70.62       70.42       70.21       70.00    
  18  -1000.0       81.16       81.13       81.05       80.93       80.78       80.58       80.35       80.08       79.78    
        79.44       79.09       78.73       78.39       78.08       77.82       77.62       77.45       77.30       77.13    
        76.94       76.73       76.51       76.28       76.03       75.78       75.53       75.26       74.99       74.71    
        74.43       74.15       73.86       73.57       73.28       72.99       72.71       72.45       72.21       71.98    
        71.78       71.59       71.40       71.22       71.03       70.83       70.63       70.43       70.21       70.00    
  19  -1000.0       81.42       81.38       81.31       81.20       81.05       80.87       80.66       80.41       80.14    
        79.84       79.52       79.20       78.89       78.60       78.33       78.11       77.92       77.74       77.53    
        77.28       77.02       76.76       76.49       76.22       75.95       75.67       75.39       75.10       74.81    
        74.51       74.21       73.91       73.60       73.30       73.00       72.70       72.42       72.17       71.95    
        71.76       71.58       71.40       71.22       71.04       70.85       70.65       70.44       70.22       70.00    
  20  -1000.0       81.68       81.65       81.58       81.48       81.34       81.17       80.97       80.75       80.49    
        80.22       79.93       79.64       79.35       79.06       78.80       78.57       78.38       78.20       77.95    
        77.63       77.32       77.01       76.71       76.41       76.11       75.81       75.51       75.21       74.90    
        74.59       74.28       73.96       73.64       73.32       73.00       72.69       72.39       72.13       71.92    
        71.74       71.57       71.41       71.24       71.06       70.87       70.66       70.45       70.23       70.00    
  21  -1000.0       81.95       81.92       81.86       81.76       81.64       81.48       81.29       81.08       80.84    
        80.59       80.32       80.04       79.76       79.49       79.22       78.99       78.81       78.72       78.45    
        77.98       77.60       77.25       76.91       76.59       76.28       75.96       75.64       75.32       75.00    
        74.68       74.35       74.02       73.69       73.36       73.02       72.69       72.37       72.09       71.89    
        71.73       71.58       71.43       71.26       71.09       70.90       70.69       70.47       70.24       70.00    
  22  -1000.0       82.24       82.20       82.14       82.05       81.93       81.78       81.61       81.41       81.19    
        80.95       80.69       80.42       80.15       79.87       79.60       79.35       79.16       79.05       78.75    
        78.25       77.84       77.46       77.11       76.77       76.43       76.10       75.77       75.43       75.10    
        74.76       74.43       74.09       73.75       73.40       73.06       72.71       72.38       72.07       71.90    
        71.75       71.61       71.46       71.30       71.13       70.94       70.73       70.50       70.25       70.00    
  23  -1000.0       82.52       82.49       82.43       82.35       82.23       82.09       81.93       81.73       81.52    
        81.29       81.04       80.78       80.51       80.23       79.94       79.67       79.42       79.18       78.86    
        78.44       78.03       77.65       77.28       76.93       76.58       76.23       75.88       75.54       75.19    
        74.85       74.50       74.16       73.81       73.46       73.11       72.77       72.45       72.16       71.96    
        71.81       71.66       71.51       71.35       71.18       70.98       70.76       70.53       70.27       70.00    
  24  -1000.0       82.81       82.78       82.73       82.64       82.53       82.40       82.24       82.06       81.85    
        81.63       81.38       81.12       80.85       80.56       80.26       79.97       79.68       79.38       79.04    
        78.61       78.20       77.80       77.43       77.07       76.71       76.35       75.99       75.63       75.28    
        74.93       74.58       74.23       73.87       73.52       73.18       72.84       72.53       72.26       72.05    
        71.87       71.72       71.56       71.40       71.22       71.02       70.80       70.56       70.29       70.00    
  25  -1000.0       83.10       83.08       83.02       82.94       82.84       82.71       82.55       82.37       82.17    
        81.95       81.71       81.45       81.18       80.88       80.57       80.26       79.95       79.62       79.27    
        78.76       78.32       77.92       77.54       77.18       76.82       76.45       76.08       75.71       75.35    
        74.99       74.64       74.28       73.93       73.58       73.23       72.90       72.60       72.33       72.11    
        71.92       71.76       71.60       71.43       71.25       71.05       70.83       70.58       70.30       70.00    
  26  -1000.0       83.10       83.07       83.02       82.94       82.84       82.71       82.56       82.38       82.19    
        81.97       81.73       81.47       81.19       80.89       80.56       80.24       79.91       79.58       79.22    
        78.79       78.39       77.99       77.61       77.25       76.88       76.51       76.14       75.77       75.40    
        75.04       74.68       74.32       73.96       73.60       73.25       72.92       72.62       72.35       72.12    
        71.93       71.75       71.59       71.42       71.24       71.03       70.81       70.56       70.29       70.00    
  27  -1000.0       83.09       83.06       83.01       82.94       82.84       82.71       82.56       82.39       82.20    
        81.98       81.74       81.48       81.19       80.89       80.56       80.23       79.89       79.55       79.19    
        78.80       78.42       78.04       77.66       77.29       76.93       76.55       76.18       75.81       75.44    
        75.08       74.71       74.34       73.98       73.61       73.26       72.92       72.60       72.33       72.10    
        71.90       71.73       71.56       71.39       71.20       71.00       70.78       70.54       70.27       70.00    
  28  -1000.0       83.09       83.06       83.01       82.94       82.84       82.71       82.57       82.40       82.20    
        81.99       81.75       81.48       81.20       80.89       80.56       80.22       79.88       79.53       79.18    
        78.81       78.43       78.06       77.69       77.32       76.96       76.59       76.21       75.84       75.47    
        75.10       74.73       74.36       73.99       73.62       73.25       72.90       72.57       72.28       72.05    
        71.86       71.69       71.52       71.35       71.16       70.96       70.75       70.51       70.26       70.00    
  29  -1000.0       83.08       83.06       83.01       82.94       82.84       82.72       82.57       82.40       82.21    
        81.99       81.75       81.49       81.20       80.89       80.56       80.22       79.87       79.52       79.17    
        78.81       78.44       78.08       77.71       77.35       76.98       76.61       76.24       75.87       75.50    
        75.13       74.76       74.38       74.00       73.63       73.25       72.88       72.53       72.23       72.00    
        71.82       71.66       71.49       71.32       71.13       70.93       70.72       70.49       70.25       70.00    
  30  -1000.0       83.08       83.06       83.01       82.94       82.84       82.72       82.57       82.41       82.21    
        82.00       81.76       81.49       81.21       80.89       80.55       80.21       79.87       79.52       79.17    
        78.81       78.45       78.09       77.73       77.36       77.00       76.63       76.27       75.90       75.53    
        75.15       74.78       74.41       74.03       73.65       73.27       72.89       72.52       72.19       71.98    
        71.81       71.65       71.48       71.30       71.11       70.91       70.70       70.47       70.24       70.00    
  31  -1000.0       83.08       83.06       83.01       82.94       82.84       82.72       82.58       82.41       82.22    
        82.00       81.76       81.50       81.21       80.89       80.55       80.21       79.87       79.52       79.17    
        78.81       78.46       78.10       77.74       77.38       77.02       76.65       76.29       75.92       75.55    
        75.18       74.81       74.44       74.06       73.68       73.31       72.94       72.58       72.27       72.03    
        71.84       71.66       71.48       71.30       71.11       70.90       70.69       70.46       70.23       70.00    
  32  -1000.0       83.08       83.06       83.01       82.94       82.84       82.72       82.58       82.41       82.22    
        82.00       81.76       81.50       81.21       80.90       80.56       80.21       79.87       79.52       79.17    
        78.82       78.47       78.11       77.75       77.40       77.04       76.67       76.31       75.95       75.58    
        75.22       74.85       74.48       74.11       73.74       73.37       73.01       72.67       72.37       72.12    
        71.90       71.70       71.51       71.31       71.11       70.90       70.68       70.46       70.23       70.00    
  33  -1000.0       83.08       83.05       83.01       82.93       82.84       82.72       82.58       82.41       82.22    
        82.00       81.76       81.50       81.21       80.90       80.56       80.22       79.87       79.52       79.18    
        78.83       78.47       78.12       77.77       77.41       77.05       76.70       76.34       75.98       75.61    
        75.25       74.89       74.52       74.16       73.80       73.44       73.10       72.77       72.47       72.21    
        71.97       71.76       71.55       71.34       71.13       70.91       70.69       70.46       70.23       70.00    
  34  -1000.0       83.08       83.05       83.00       82.93       82.84       82.72       82.58       82.41       82.22    
        82.00       81.76       81.50       81.21       80.90       80.56       80.22       79.87       79.53       79.18    
        78.83       78.48       78.13       77.78       77.43       77.07       76.72       76.36       76.01       75.65    
        75.29       74.93       74.57       74.22       73.86       73.52       73.18       72.86       72.57       72.30    
        72.05       71.82       71.59       71.37       71.15       70.93       70.70       70.47       70.23       70.00    
  35  -1000.0       83.07       83.05       83.00       82.93       82.84       82.72       82.57       82.41       82.22    
        82.00       81.76       81.50       81.21       80.90       80.56       80.22       79.88       79.53       79.19    
        78.84       78.49       78.15       77.80       77.45       77.09       76.74       76.39       76.04       75.68    
        75.33       74.97       74.62       74.27       73.93       73.59       73.27       72.95       72.66       72.38    
        72.12       71.88       71.64       71.41       71.18       70.94       70.71       70.48       70.24       70.00    
  36  -1000.0       83.07       83.05       83.00       82.93       82.83       82.72       82.57       82.41       82.22    
        82.00       81.76       81.50       81.21       80.90       80.56       80.22       79.88       79.54       79.19    
        78.85       78.50       78.16       77.81       77.46       77.11       76.76       76.41       76.07       75.72    
        75.37       75.02       74.67       74.33       73.99       73.66       73.34       73.03       72.74       72.46    
        72.19       71.94       71.69       71.45       71.21       70.97       70.73       70.49       70.24       70.00    
  37  -1000.0       83.07       83.05       83.00       82.93       82.83       82.71       82.57       82.40       82.21    
        82.00       81.76       81.50       81.21       80.90       80.56       80.22       79.88       79.54       79.20    
        78.86       78.51       78.17       77.82       77.48       77.13       76.79       76.44       76.09       75.75    
        75.40       75.06       74.72       74.39       74.05       73.73       73.41       73.11       72.81       72.53    
        72.25       71.99       71.74       71.48       71.24       70.99       70.74       70.50       70.25       70.00    
  38  -1000.0       83.07       83.04       83.00       82.92       82.83       82.71       82.57       82.40       82.21    
        82.00       81.76       81.50       81.21       80.90       80.56       80.23       79.89       79.55       79.21    
        78.87       78.52       78.18       77.84       77.50       77.15       76.81       76.47       76.12       75.78    
        75.44       75.10       74.77       74.44       74.11       73.79       73.47       73.17       72.87       72.59    
        72.31       72.04       71.78       71.52       71.26       71.01       70.76       70.51       70.25       70.00    
  39  -1000.0       83.07       83.04       82.99       82.92       82.82       82.70       82.56       82.39       82.21    
        81.99       81.76       81.50       81.21       80.90       80.57       80.23       79.89       79.55       79.21    
        78.87       78.53       78.19       77.85       77.51       77.17       76.83       76.49       76.15       75.81    
        75.48       75.14       74.81       74.48       74.16       73.84       73.53       73.22       72.93       72.64    
        72.36       72.09       71.82       71.55       71.29       71.03       70.77       70.52       70.26       70.00    
  40  -1000.0       83.07       83.04       82.99       82.91       82.82       82.70       82.55       82.39       82.20    
        81.99       81.75       81.49       81.21       80.90       80.57       80.23       79.89       79.56       79.22    
        78.88       78.54       78.20       77.87       77.53       77.19       76.85       76.51       76.18       75.84    
        75.51       75.18       74.85       74.52       74.20       73.89       73.58       73.27       72.98       72.69    
        72.40       72.12       71.85       71.58       71.32       71.05       70.79       70.52       70.26       70.00    
  41  -1000.0       83.07       83.04       82.99       82.91       82.81       82.69       82.55       82.38       82.19    
        81.98       81.75       81.49       81.21       80.90       80.57       80.23       79.90       79.56       79.22    
        78.89       78.55       78.21       77.88       77.54       77.20       76.87       76.53       76.20       75.87    
        75.54       75.21       74.88       74.56       74.24       73.93       73.62       73.32       73.02       72.73    
        72.44       72.16       71.88       71.61       71.34       71.07       70.80       70.53       70.27       70.00    
  42  -1000.0       83.08       83.04       82.98       82.90       82.80       82.68       82.54       82.37       82.18    
        81.97       81.74       81.48       81.20       80.90       80.56       80.23       79.90       79.56       79.23    
        78.89       78.56       78.22       77.89       77.55       77.22       76.89       76.55       76.22       75.89    
        75.56       75.24       74.91       74.59       74.27       73.96       73.65       73.35       73.05       72.76    
        72.47       72.19       71.91       71.63       71.36       71.08       70.81       70.54       70.27       70.00    
  43  -1000.0       83.10       83.06       82.97       82.89       82.79       82.66       82.52       82.36       82.17    
        81.96       81.73       81.48       81.20       80.89       80.56       80.23       79.90       79.57       79.23    
        78.90       78.57       78.23       77.90       77.57       77.23       76.90       76.57       76.24       75.91    
        75.58       75.26       74.94       74.62       74.30       73.99       73.69       73.38       73.08       72.79    
        72.50       72.21       71.93       71.65       71.37       71.10       70.82       70.55       70.27       70.00    
  44  -1000.0     -1000.0       83.07       82.99       82.87       82.77       82.65       82.50       82.34       82.16    
        81.95       81.72       81.47       81.19       80.89       80.56       80.23       79.90       79.57       79.24    
        78.90       78.57       78.24       77.91       77.57       77.24       76.91       76.58       76.25       75.93    
        75.60       75.28       74.96       74.64       74.33       74.02       73.71       73.41       73.11       72.81    
        72.52       72.24       71.95       71.67       71.39       71.11       70.83       70.55       70.28       70.00    
  45  -1000.0     -1000.0     -1000.0       82.99       82.88       82.75       82.62       82.48       82.32       82.14    
        81.94       81.71       81.46       81.19       80.89       80.56       80.23       79.90       79.57       79.24    
        78.91       78.58       78.25       77.91       77.58       77.25       76.92       76.60       76.27       75.94    
        75.62       75.30       74.98       74.66       74.35       74.04       73.73       73.43       73.13       72.83    
        72.54       72.25       71.97       71.68       71.40       71.12       70.84       70.56       70.28       70.00    
  46  -1000.0     -1000.0     -1000.0     -1000.0       82.88       82.75       82.60       82.46       82.30       82.12    
        81.93       81.70       81.45       81.18       80.88       80.56       80.23       79.90       79.57       79.24    
        78.91       78.58       78.25       77.92       77.59       77.26       76.93       76.61       76.28       75.95    
        75.63       75.31       74.99       74.68       74.36       74.06       73.75       73.45       73.15       72.85    
        72.56       72.27       71.98       71.69       71.41       71.13       70.84       70.56       70.28       70.00    
  47  -1000.0     -1000.0     -1000.0     -1000.0     -1000.0       82.74       82.60       82.43       82.27       82.10    
        81.91       81.69       81.45       81.18       80.88       80.56       80.23       79.90       79.57       79.24    
        78.91       78.58       78.25       77.92       77.60       77.27       76.94       76.61       76.29       75.96    
        75.64       75.32       75.00       74.69       74.38       74.07       73.76       73.46       73.16       72.86    
        72.57       72.28       71.99       71.70       71.42       71.13       70.85       70.57       70.28       70.00    
  48  -1000.0     -1000.0     -1000.0     -1000.0     -1000.0     -1000.0       82.60       82.44       82.24       82.08    
        81.89       81.68       81.44       81.17       80.88       80.55       80.23       79.90       79.57       79.25    
        78.92       78.59       78.26       77.93       77.60       77.27       76.94       76.62       76.29       75.97    
        75.65       75.33       75.01       74.70       74.38       74.08       73.77       73.47       73.17       72.87    
        72.57       72.28       71.99       71.71       71.42       71.14       70.85       70.57       70.28       70.00    
  49  -1000.0     -1000.0     -1000.0     -1000.0     -1000.0     -1000.0     -1000.0       82.44       82.26       82.04    
        81.88       81.67       81.44       81.17       80.87       80.55       80.23       79.90       79.57       79.25    
        78.92       78.59       78.26       77.93       77.60       77.27       76.95       76.62       76.30       75.97    
        75.65       75.33       75.01       74.70       74.39       74.08       73.77       73.47       73.17       72.87    
        72.58       72.29       72.00       71.71       71.42       71.14       70.85       70.57       70.28       70.00    
  50  -1000.0     -1000.0     -1000.0     -1000.0     -1000.0     -1000.0     -1000.0     -1000.0     -1000.0     -1000.0    
      -1000.0     -1000.0     -1000.0     -1000.0     -1000.0     -1000.0     -1000.0     -1000.0     -1000.0     -1000.0    
      -1000.0     -1000.0     -1000.0     -1000.0     -1000.0     -1000.0     -1000.0     -1000.0     -1000.0     -1000.0    
      -1000.0     -1000.0     -1000.0     -1000.0     -1000.0     -1000.0     -1000.0     -1000.0     -1000.0     -1000.0    
      -1000.0     -1000.0     -1000.0     -1000.0     -1000.0     -1000.0     -1000.0     -1000.0     -1000.0       70.00    
1
              HEAD IN LAYER   3 AT END OF TIME STEP   1 IN STRESS PERIOD    1
  ---------------------------------------------------------------------------

            1           2           3           4           5           6           7           8           9          10
           11          12          13          14          15          16          17          18          19          20
           21          22          23          24          25          26          27          28          29          30
[...]
        78.34       77.84       77.37       76.92       76.48       76.06       75.64       75.23       74.81       74.38    
        73.94       73.49       73.01       72.51       71.97       71.37       70.70       69.93       69.18       69.46    
        69.75       69.94       70.06       70.12       70.15       70.15       70.13       70.09       70.05       70.00    
  24  -1000.0       82.81       82.78       82.73       82.64       82.53       82.40       82.24       82.06       81.85    
        81.63       81.38       81.12       80.85       80.56       80.26       79.97       79.68       79.38       79.04    
        78.50       77.99       77.50       77.04       76.60       76.16       75.73       75.31       74.87       74.44    
        73.99       73.53       73.04       72.54       72.01       71.46       70.88       70.32       69.90       69.84    
        69.91       70.00       70.07       70.12       70.14       70.14       70.12       70.09       70.05       70.00    
  25  -1000.0       83.10       83.07       83.02       82.94       82.84       82.71       82.55       82.37       82.17    
        81.95       81.71       81.45       81.18       80.88       80.57       80.26       79.95       79.62       79.27    
        78.64       78.11       77.61       77.15       76.69       76.25       75.82       75.38       74.94       74.50    
        74.04       73.57       73.09       72.58       72.07       71.54       71.03       70.56       70.22       70.07    
        70.04       70.07       70.10       70.13       70.14       70.14       70.12       70.08       70.04       70.00    
  26  -1000.0       83.10       83.07       83.02       82.94       82.84       82.71       82.56       82.38       82.19    
        81.97       81.73       81.47       81.19       80.89       80.56       80.24       79.91       79.58       79.22    
        78.69       78.18       77.70       77.23       76.78       76.33       75.89       75.45       75.01       74.56    
        74.09       73.62       73.13       72.63       72.11       71.59       71.10       70.66       70.33       70.16    
        70.10       70.10       70.13       70.14       70.15       70.14       70.12       70.09       70.05       70.00    
  27  -1000.0       83.09       83.06       83.01       82.94       82.84       82.71       82.56       82.39       82.20    
        81.98       81.74       81.48       81.19       80.89       80.56       80.23       79.89       79.55       79.19    
        78.71       78.22       77.76       77.30       76.85       76.40       75.96       75.52       75.07       74.62    
        74.15       73.67       73.18       72.67       72.15       71.61       71.09       70.62       70.28       70.12    
        70.09       70.10       70.13       70.16       70.16       70.15       70.13       70.09       70.05       70.00    
  28  -1000.0       83.09       83.06       83.01       82.94       82.84       82.71       82.57       82.40       82.20    
        81.99       81.75       81.48       81.20       80.89       80.56       80.22       79.88       79.53       79.18    
        78.72       78.26       77.80       77.35       76.91       76.47       76.02       75.58       75.13       74.68    
        74.21       73.73       73.24       72.72       72.17       71.60       71.02       70.44       70.00       69.94    
        70.00       70.08       70.14       70.17       70.18       70.17       70.14       70.10       70.05       70.00    
  29  -1000.0       83.08       83.06       83.01       82.94       82.84       82.72       82.57       82.40       82.21    
        81.99       81.75       81.49       81.20       80.89       80.56       80.22       79.87       79.52       79.17    
        78.73       78.28       77.84       77.40       76.96       76.52       76.09       75.64       75.20       74.75    
        74.28       73.80       73.30       72.78       72.21       71.60       70.90       70.11       69.34       69.60    
        69.87       70.05       70.15       70.20       70.21       70.20       70.16       70.12       70.06       70.00    
  30  -1000.0       83.08       83.06       83.01       82.94       82.84       82.72       82.57       82.40       82.21    
        82.00       81.76       81.49       81.21       80.89       80.55       80.21       79.87       79.52       79.17    
        78.74       78.30       77.87       77.44       77.01       76.58       76.14       75.71       75.27       74.82    
        74.36       73.88       73.38       72.86       72.29       71.65       70.87       69.75       67.61       69.22    
        69.82       70.09       70.21       70.25       70.26       70.23       70.19       70.13       70.07       70.00    
  31  -1000.0       83.08       83.06       83.01       82.94       82.84       82.72       82.58       82.41       82.22    
        82.00       81.76       81.50       81.21       80.89       80.55       80.21       79.87       79.52       79.17    
        78.75       78.32       77.90       77.48       77.05       76.63       76.20       75.77       75.33       74.89    
        74.44       73.97       73.49       72.97       72.43       71.83       71.15       70.36       69.59       69.84    
        70.09       70.25       70.32       70.34       70.33       70.28       70.23       70.16       70.08       70.00    
  32  -1000.0       83.08       83.06       83.01       82.94       82.84       82.72       82.58       82.41       82.22    
        82.00       81.76       81.50       81.21       80.90       80.56       80.21       79.87       79.52       79.17    
        78.76       78.34       77.93       77.51       77.09       76.67       76.25       75.83       75.40       74.97    
        74.52       74.07       73.60       73.12       72.61       72.07       71.51       70.95       70.51       70.42    
        70.44       70.47       70.48       70.45       70.41       70.35       70.27       70.19       70.09       70.00    
  33  -1000.0       83.08       83.05       83.01       82.93       82.84       82.72       82.58       82.41       82.22    
        82.00       81.76       81.50       81.21       80.90       80.56       80.22       79.87       79.52       79.18    
        78.77       78.36       77.95       77.54       77.13       76.72       76.31       75.89       75.47       75.05    
        74.62       74.18       73.73       73.27       72.80       72.32       71.85       71.41       71.07       70.88    
        70.78       70.71       70.65       70.58       70.50       70.42       70.32       70.22       70.11       70.00    
  34  -1000.0       83.08       83.05       83.00       82.93       82.84       82.72       82.58       82.41       82.22    
        82.00       81.76       81.50       81.21       80.90       80.56       80.22       79.87       79.53       79.18    
        78.78       78.38       77.98       77.57       77.17       76.77       76.36       75.95       75.54       75.13    
        74.71       74.28       73.86       73.42       72.99       72.56       72.15       71.77       71.46       71.23    
        71.06       70.93       70.82       70.71       70.60       70.49       70.37       70.25       70.13       70.00    
  35  -1000.0       83.07       83.05       83.00       82.93       82.84       82.72       82.57       82.41       82.22    
        82.00       81.76       81.50       81.21       80.90       80.56       80.22       79.88       79.53       79.19    
        78.79       78.40       78.00       77.61       77.21       76.81       76.41       76.01       75.61       75.21    
        74.80       74.39       73.98       73.57       73.17       72.77       72.40       72.05       71.75       71.50    
        71.30       71.13       70.98       70.84       70.70       70.56       70.42       70.28       70.14       70.00    
  36  -1000.0       83.07       83.05       83.00       82.93       82.83       82.71       82.57       82.41       82.22    
        82.00       81.76       81.50       81.21       80.90       80.56       80.22       79.88       79.54       79.19    
        78.80       78.41       78.02       77.63       77.24       76.85       76.46       76.07       75.68       75.28    
        74.89       74.49       74.10       73.71       73.33       72.96       72.60       72.28       71.98       71.72    
        71.50       71.30       71.12       70.95       70.79       70.63       70.47       70.31       70.16       70.00    
  37  -1000.0       83.07       83.05       83.00       82.93       82.83       82.71       82.57       82.40       82.21    
        82.00       81.76       81.50       81.21       80.90       80.56       80.22       79.88       79.54       79.20    
        78.82       78.43       78.05       77.66       77.28       76.89       76.51       76.12       75.74       75.35    
        74.97       74.59       74.21       73.84       73.47       73.12       72.78       72.46       72.17       71.91    
        71.67       71.45       71.25       71.06       70.87       70.69       70.52       70.35       70.17       70.00    
  38  -1000.0       83.07       83.04       83.00       82.92       82.83       82.71       82.57       82.40       82.21    
        82.00       81.76       81.50       81.21       80.90       80.56       80.23       79.89       79.55       79.21    
        78.83       78.45       78.07       77.69       77.31       76.93       76.55       76.18       75.80       75.42    
        75.05       74.68       74.31       73.95       73.60       73.25       72.93       72.62       72.33       72.06    
        71.81       71.57       71.35       71.15       70.95       70.75       70.56       70.37       70.19       70.00    
  39  -1000.0       83.07       83.04       82.99       82.92       82.82       82.70       82.56       82.39       82.21    
        81.99       81.76       81.50       81.21       80.90       80.57       80.23       79.89       79.55       79.21    
        78.84       78.46       78.09       77.71       77.34       76.97       76.59       76.22       75.85       75.48    
        75.12       74.76       74.40       74.05       73.70       73.37       73.05       72.74       72.45       72.18    
        71.92       71.68       71.45       71.23       71.01       70.80       70.60       70.40       70.20       70.00    
  40  -1000.0       83.07       83.04       82.99       82.91       82.82       82.70       82.55       82.39       82.20    
        81.99       81.75       81.49       81.21       80.90       80.57       80.23       79.89       79.56       79.22    
        78.85       78.48       78.11       77.74       77.37       77.00       76.63       76.27       75.90       75.54    
        75.18       74.83       74.48       74.13       73.80       73.47       73.16       72.85       72.56       72.29    
        72.02       71.77       71.53       71.30       71.07       70.85       70.63       70.42       70.21       70.00    
  41  -1000.0       83.07       83.04       82.99       82.91       82.81       82.69       82.55       82.38       82.19    
        81.98       81.75       81.49       81.21       80.90       80.57       80.23       79.90       79.56       79.22    
        78.86       78.49       78.12       77.76       77.39       77.03       76.67       76.31       75.95       75.59    
        75.24       74.89       74.55       74.21       73.88       73.56       73.24       72.94       72.65       72.37    
        72.10       71.85       71.60       71.35       71.12       70.89       70.66       70.44       70.22       70.00    
  42  -1000.0     -1000.0       83.04       82.98       82.90       82.80       82.68       82.54       82.37       82.18    
        81.97       81.74       81.48       81.20       80.90       80.56       80.23       79.90       79.56       79.23    
        78.87       78.50       78.14       77.78       77.42       77.06       76.70       76.34       75.99       75.64    
        75.29       74.95       74.61       74.27       73.95       73.63       73.32       73.02       72.73       72.45    
        72.17       71.91       71.65       71.40       71.16       70.92       70.69       70.46       70.23       70.00    
  43  -1000.0     -1000.0     -1000.0       82.97       82.89       82.79       82.66       82.52       82.36       82.17    
        81.96       81.73       81.48       81.20       80.89       80.56       80.23       79.90       79.57       79.23    
        78.87       78.51       78.15       77.79       77.43       77.08       76.72       76.37       76.02       75.67    
        75.33       74.99       74.66       74.33       74.01       73.69       73.38       73.08       72.79       72.51    
        72.23       71.96       71.70       71.45       71.20       70.95       70.71       70.47       70.24       70.00    
  44  -1000.0     -1000.0     -1000.0     -1000.0       82.87       82.77       82.65       82.50       82.34       82.16    
        81.95       81.72       81.47       81.19       80.89       80.56       80.23       79.90       79.57       79.24    
        78.88       78.52       78.16       77.81       77.45       77.10       76.75       76.40       76.05       75.71    
        75.37       75.03       74.70       74.37       74.05       73.74       73.43       73.13       72.84       72.55    
        72.28       72.01       71.74       71.48       71.23       70.98       70.73       70.49       70.24       70.00    
  45  -1000.0     -1000.0     -1000.0     -1000.0     -1000.0       82.75       82.62       82.48       82.32       82.14    
        81.94       81.71       81.46       81.19       80.89       80.56       80.23       79.90       79.57       79.24    
        78.88       78.53       78.17       77.82       77.47       77.12       76.77       76.42       76.08       75.73    
        75.40       75.06       74.73       74.41       74.09       73.78       73.47       73.17       72.88       72.59    
        72.31       72.04       71.77       71.51       71.25       71.00       70.74       70.50       70.25       70.00    
  46  -1000.0     -1000.0     -1000.0     -1000.0     -1000.0     -1000.0       82.60       82.46       82.30       82.12    
        81.93       81.70       81.45       81.18       80.88       80.56       80.23       79.90       79.57       79.24    
        78.89       78.53       78.18       77.83       77.48       77.13       76.78       76.44       76.09       75.76    
        75.42       75.09       74.76       74.44       74.12       73.81       73.51       73.21       72.91       72.62    
        72.34       72.07       71.80       71.53       71.27       71.01       70.76       70.50       70.25       70.00    
  47  -1000.0     -1000.0     -1000.0     -1000.0     -1000.0     -1000.0     -1000.0       82.43       82.27       82.10    
        81.91       81.69       81.45       81.18       80.88       80.56       80.23       79.90       79.57       79.24    
        78.89       78.54       78.19       77.84       77.49       77.14       76.79       76.45       76.11       75.77    
        75.44       75.11       74.78       74.46       74.14       73.83       73.53       73.23       72.94       72.65    
        72.36       72.09       71.81       71.55       71.28       71.02       70.76       70.51       70.25       70.00    
  48  -1000.0     -1000.0     -1000.0     -1000.0     -1000.0     -1000.0     -1000.0     -1000.0       82.24       82.08    
        81.89       81.68       81.44       81.17       80.88       80.55       80.23       79.90       79.57       79.25    
        78.89       78.54       78.19       77.84       77.49       77.14       76.80       76.46       76.12       75.78    
        75.45       75.12       74.80       74.48       74.16       73.85       73.54       73.24       72.95       72.66    
        72.38       72.10       71.83       71.56       71.29       71.03       70.77       70.51       70.26       70.00    
  49  -1000.0     -1000.0     -1000.0     -1000.0     -1000.0     -1000.0     -1000.0     -1000.0     -1000.0       82.04    
        81.88       81.67       81.44       81.17       80.87       80.55       80.23       79.90       79.57       79.25    
        78.89       78.54       78.19       77.84       77.49       77.15       76.80       76.46       76.12       75.79    
        75.46       75.13       74.80       74.48       74.17       73.86       73.55       73.25       72.96       72.67    
        72.39       72.11       71.83       71.56       71.30       71.03       70.77       70.51       70.26       70.00    
  50  -1000.0     -1000.0     -1000.0     -1000.0     -1000.0     -1000.0     -1000.0     -1000.0     -1000.0     -1000.0    
      -1000.0     -1000.0     -1000.0     -1000.0     -1000.0     -1000.0     -1000.0     -1000.0     -1000.0     -1000.0    
      -1000.0     -1000.0     -1000.0     -1000.0     -1000.0     -1000.0     -1000.0     -1000.0     -1000.0     -1000.0    
      -1000.0     -1000.0     -1000.0     -1000.0     -1000.0     -1000.0     -1000.0     -1000.0     -1000.0     -1000.0    
      -1000.0     -1000.0     -1000.0     -1000.0     -1000.0     -1000.0     -1000.0     -1000.0     -1000.0       70.00    

 HEAD WILL BE SAVED ON UNIT   51 AT END OF TIME STEP    1, STRESS PERIOD    1

 DRAWDOWN WILL BE SAVED ON UNIT   52 AT END OF TIME STEP    1, STRESS PERIOD    1
1
  VOLUMETRIC BUDGET FOR ENTIRE MODEL AT END OF TIME STEP    1, STRESS PERIOD   1
  ------------------------------------------------------------------------------

     CUMULATIVE VOLUMES      L**3       RATES FOR THIS TIME STEP      L**3/T
     ------------------                 ------------------------

           IN:                                      IN:
           ---                                      ---
             STORAGE =           0.0000               STORAGE =           0.0000
       CONSTANT HEAD =           0.0000         CONSTANT HEAD =           0.0000
               WELLS =         375.0000                 WELLS =         375.0000
       RIVER LEAKAGE =        4305.9429         RIVER LEAKAGE =        4305.9429
                  ET =           0.0000                    ET =           0.0000
            RECHARGE =        7120.0000              RECHARGE =        7120.0000

            TOTAL IN =       11800.9434              TOTAL IN =       11800.9434

          OUT:                                     OUT:
          ----                                     ----
             STORAGE =           0.0000               STORAGE =           0.0000
       CONSTANT HEAD =        3962.2800         CONSTANT HEAD =        3962.2800
               WELLS =        7500.0000                 WELLS =        7500.0000
       RIVER LEAKAGE =          76.1938         RIVER LEAKAGE =          76.1938
                  ET =         262.4503                    ET =         262.4503
            RECHARGE =           0.0000              RECHARGE =           0.0000

           TOTAL OUT =       11800.9238             TOTAL OUT =       11800.9238

            IN - OUT =       1.9531E-02              IN - OUT =       1.9531E-02

 PERCENT DISCREPANCY =           0.00     PERCENT DISCREPANCY =           0.00






         TIME SUMMARY AT END OF TIME STEP    1 IN STRESS PERIOD    1
                    SECONDS     MINUTES      HOURS       DAYS        YEARS
                    -----------------------------------------------------------
   TIME STEP LENGTH  86400.      1440.0      24.000      1.0000     2.73785E-03
 STRESS PERIOD TIME  86400.      1440.0      24.000      1.0000     2.73785E-03
         TOTAL TIME  86400.      1440.0      24.000      1.0000     2.73785E-03
1

 Run end date and time (yyyy/mm/dd hh:mm:ss): 2026/02/25  7:16:42
 Elapsed run time: 12.230 Seconds

