                                  MODFLOW-2005     
      U.S. GEOLOGICAL SURVEY MODULAR FINITE-DIFFERENCE GROUND-WATER FLOW MODEL
                            VERSION 1.12.00 2/3/2017

 LIST FILE: static_ensemble_S1bc_1211311.list
                         UNIT    2

 OPENING static_ensemble_S1bc_1211311.dis
 FILE TYPE:DIS   UNIT   11   STATUS:OLD    
 FORMAT:FORMATTED              ACCESS:SEQUENTIAL          

 OPENING static_ensemble_S1bc_1211311.bas
 FILE TYPE:BAS6   UNIT   13   STATUS:OLD    
 FORMAT:FORMATTED              ACCESS:SEQUENTIAL          

 OPENING static_ensemble_S1bc_1211311.lpf
 FILE TYPE:LPF   UNIT   15   STATUS:OLD    
 FORMAT:FORMATTED              ACCESS:SEQUENTIAL          

 OPENING static_ensemble_S1bc_1211311.evt
 FILE TYPE:EVT   UNIT   22   STATUS:OLD    
 FORMAT:FORMATTED              ACCESS:SEQUENTIAL          

 OPENING static_ensemble_S1bc_1211311.rch
 FILE TYPE:RCH   UNIT   19   STATUS:OLD    
 FORMAT:FORMATTED              ACCESS:SEQUENTIAL          

 OPENING static_ensemble_S1bc_1211311.riv
 FILE TYPE:RIV   UNIT   18   STATUS:OLD    
 FORMAT:FORMATTED              ACCESS:SEQUENTIAL          

 OPENING static_ensemble_S1bc_1211311.wel
 FILE TYPE:WEL   UNIT   20   STATUS:OLD    
 FORMAT:FORMATTED              ACCESS:SEQUENTIAL          

 OPENING static_ensemble_S1bc_1211311.oc
 FILE TYPE:OC   UNIT   14   STATUS:OLD    
 FORMAT:FORMATTED              ACCESS:SEQUENTIAL          

 OPENING static_ensemble_S1bc_1211311.pcg
 FILE TYPE:PCG   UNIT   27   STATUS:OLD    
 FORMAT:FORMATTED              ACCESS:SEQUENTIAL          

 OPENING static_ensemble_S1bc_1211311.cbc
 FILE TYPE:DATA(BINARY)   UNIT   53   STATUS:REPLACE
 FORMAT:UNFORMATTED            ACCESS:STREAM              

 OPENING static_ensemble_S1bc_1211311.hds
 FILE TYPE:DATA(BINARY)   UNIT   51   STATUS:REPLACE
 FORMAT:UNFORMATTED            ACCESS:STREAM              

 OPENING static_ensemble_S1bc_1211311.ddn
 FILE TYPE:DATA(BINARY)   UNIT   52   STATUS:REPLACE
 FORMAT:UNFORMATTED            ACCESS:STREAM              

 BAS -- BASIC PACKAGE, VERSION 7, 5/2/2005 INPUT READ FROM UNIT   13
 
 MODFLOW was compiled using mixed precision
 Precision of REAL variables:           6
 Precision of DOUBLE PRECISION variables:          15

 DISCRETIZATION INPUT DATA READ FROM UNIT   11
 # DIS package for MODFLOW-2005 generated by Flopy 3.10.0
    3 LAYERS        50 ROWS        50 COLUMNS
    1 STRESS PERIOD(S) IN SIMULATION
 MODEL TIME UNIT IS DAYS
 MODEL LENGTH UNIT IS METERS
  Confining bed flag for each layer:
   0   0   0

                     DELR =   1000.00    

                     DELC =   1000.00    



           TOP ELEVATION OF LAYER 1
 READING ON UNIT   11 WITH FORMAT: (50E15.6)           



             MODEL LAYER BOTTOM EL. FOR LAYER   1
 READING ON UNIT   11 WITH FORMAT: (50E15.6)           



             MODEL LAYER BOTTOM EL. FOR LAYER   2
 READING ON UNIT   11 WITH FORMAT: (50E15.6)           



             MODEL LAYER BOTTOM EL. FOR LAYER   3
 READING ON UNIT   11 WITH FORMAT: (50E15.6)           


 STRESS PERIOD     LENGTH       TIME STEPS     MULTIPLIER FOR DELT    SS FLAG
 ----------------------------------------------------------------------------
        1         1.000000          1                    1.000         SS

 STEADY-STATE SIMULATION



 
 # BAS6 package for MODFLOW-2005 generated by Flopy 3.10.0                       
 THE FREE FORMAT OPTION HAS BEEN SELECTED



                     BOUNDARY ARRAY FOR LAYER   1
 READING ON UNIT   13 WITH FORMAT: (50I10)             



                     BOUNDARY ARRAY FOR LAYER   2
 READING ON UNIT   13 WITH FORMAT: (50I10)             



                     BOUNDARY ARRAY FOR LAYER   3
 READING ON UNIT   13 WITH FORMAT: (50I10)             

 AQUIFER HEAD WILL BE SET TO  -999.99     AT ALL NO-FLOW NODES (IBOUND=0).



                       INITIAL HEAD FOR LAYER   1
 READING ON UNIT   13 WITH FORMAT: (50E15.6)           



                       INITIAL HEAD FOR LAYER   2
 READING ON UNIT   13 WITH FORMAT: (50E15.6)           



                       INITIAL HEAD FOR LAYER   3
 READING ON UNIT   13 WITH FORMAT: (50E15.6)           
 # OC package for MODFLOW-2005 generated by Flopy 3.10.0

 OUTPUT CONTROL IS SPECIFIED ONLY AT TIME STEPS FOR WHICH OUTPUT IS DESIRED
 COMPACT CELL-BY-CELL BUDGET FILES WILL BE WRITTEN
 AUXILIARY DATA WILL BE SAVED IN CELL-BY-CELL BUDGET FILES
 HEAD PRINT FORMAT CODE IS   0    DRAWDOWN PRINT FORMAT CODE IS   0
 HEADS WILL BE SAVED ON UNIT   51    DRAWDOWNS WILL BE SAVED ON UNIT   52

 LPF -- LAYER-PROPERTY FLOW PACKAGE, VERSION 7, 5/2/2005
         INPUT READ FROM UNIT   15
 # LPF package for MODFLOW-2005 generated by Flopy 3.10.0
 CELL-BY-CELL FLOWS WILL BE SAVED ON UNIT   53
 HEAD AT CELLS THAT CONVERT TO DRY= -1.00000E+30
 No named parameters
 STORAGECOEFFICIENT OPTION:
 Read storage coefficient rather than specific storage

   LAYER FLAGS:
 LAYER       LAYTYP        LAYAVG         CHANI        LAYVKA        LAYWET
 ---------------------------------------------------------------------------
    1             1             0     1.000E+00             0             0
    2             1             0     1.000E+00             0             0
    3             1             0     1.000E+00             0             0

   INTERPRETATION OF LAYER FLAGS:
                        INTERBLOCK     HORIZONTAL    DATA IN
         LAYER TYPE   TRANSMISSIVITY   ANISOTROPY   ARRAY VKA   WETTABILITY
 LAYER      (LAYTYP)      (LAYAVG)       (CHANI)      (LAYVKA)      (LAYWET)
 ---------------------------------------------------------------------------
    1   CONVERTIBLE      HARMONIC     1.000E+00    VERTICAL K  NON-WETTABLE
    2   CONVERTIBLE      HARMONIC     1.000E+00    VERTICAL K  NON-WETTABLE
    3   CONVERTIBLE      HARMONIC     1.000E+00    VERTICAL K  NON-WETTABLE

 WETTING CAPABILITY IS NOT ACTIVE IN ANY LAYER



              HYD. COND. ALONG ROWS FOR LAYER   1
 READING ON UNIT   15 WITH FORMAT: (50E15.6)           



                VERTICAL HYD. COND. FOR LAYER   1
 READING ON UNIT   15 WITH FORMAT: (50E15.6)           



              HYD. COND. ALONG ROWS FOR LAYER   2
 READING ON UNIT   15 WITH FORMAT: (50E15.6)           



                VERTICAL HYD. COND. FOR LAYER   2
 READING ON UNIT   15 WITH FORMAT: (50E15.6)           



              HYD. COND. ALONG ROWS FOR LAYER   3
 READING ON UNIT   15 WITH FORMAT: (50E15.6)           



                VERTICAL HYD. COND. FOR LAYER   3
 READING ON UNIT   15 WITH FORMAT: (50E15.6)           

 WEL -- WELL PACKAGE, VERSION 7, 5/2/2005 INPUT READ FROM UNIT   20
 # WEL package for MODFLOW-2005 generated by Flopy 3.10.0
 No named parameters
 MAXIMUM OF      3 ACTIVE WELLS AT ONE TIME


     0 Well parameters

 RIV -- RIVER PACKAGE, VERSION 7, 5/2/2005 INPUT READ FROM UNIT   18
 # RIV package for MODFLOW-2005 generated by Flopy 3.10.0
 No named parameters
 MAXIMUM OF     49 ACTIVE RIVER REACHES AT ONE TIME
 CELL-BY-CELL FLOWS WILL BE SAVED ON UNIT   53


     0 River parameters

 EVT -- EVAPOTRANSPIRATION PACKAGE, VERSION 7, 5/2/2005
         INPUT READ FROM UNIT   22
 # EVT package for MODFLOW-2005 generated by Flopy 3.10.0
 No named parameters
 OPTION 3 -- EVAPOTRANSPIRATION FROM HIGHEST ACTIVE NODE IN EACH VERTICAL COLUMN
 CELL-BY-CELL FLOWS WILL BE SAVED ON UNIT   53


     0 Evapotranspiration parameters

 RCH -- RECHARGE PACKAGE, VERSION 7, 5/2/2005 INPUT READ FROM UNIT   19
 # RCH package for MODFLOW-2005 generated by Flopy 3.10.0
 No named parameters
 OPTION 3 -- RECHARGE TO HIGHEST ACTIVE NODE IN EACH VERTICAL COLUMN
 CELL-BY-CELL FLOWS WILL BE SAVED ON UNIT   53


     0 Recharge parameters

 PCG -- CONJUGATE-GRADIENT SOLUTION PACKAGE, VERSION 7, 5/2/2005
 # PCG package for MODFLOW-2005 generated by Flopy 3.10.0
 MAXIMUM OF   5000 CALLS OF SOLUTION ROUTINE
 MAXIMUM OF    500 INTERNAL ITERATIONS PER CALL TO SOLUTION ROUTINE
 MATRIX PRECONDITIONING TYPE :    1



                                    SOLUTION BY THE CONJUGATE-GRADIENT METHOD
                                   -------------------------------------------
                    MAXIMUM NUMBER OF CALLS TO PCG ROUTINE =     5000
                        MAXIMUM ITERATIONS PER CALL TO PCG =      500
                               MATRIX PRECONDITIONING TYPE =        1
        RELAXATION FACTOR (ONLY USED WITH PRECOND. TYPE 1) =    0.97000E+00
 PARAMETER OF POLYNOMIAL PRECOND. = 2 (2) OR IS CALCULATED :        0
                         HEAD CHANGE CRITERION FOR CLOSURE =    0.10000E-04
                     RESIDUAL CHANGE CRITERION FOR CLOSURE =    0.10000E-04
            PCG HEAD AND RESIDUAL CHANGE PRINTOUT INTERVAL =      999
     PRINTING FROM SOLVER IS LIMITED(1) OR SUPPRESSED (>1) =        3
                            STEADY-STATE DAMPING PARAMETER =    0.10000E-01
                               TRANSIENT DAMPING PARAMETER =    0.10000E-01
1
                            STRESS PERIOD NO.    1, LENGTH =   1.000000    
                            -----------------------------------------------

                              NUMBER OF TIME STEPS =     1

                               MULTIPLIER FOR DELT =     1.000

                            INITIAL TIME STEP SIZE =   1.000000    

 WELL NO.  LAYER   ROW   COL   STRESS RATE         
 --------------------------------------------------
      1      3     22     39      -1500.    
      2      1     13     15      -4500.    
      3      1     25     26       375.0    

      3 WELLS

 REACH NO.  LAYER   ROW   COL     STAGE      CONDUCTANCE     BOTTOM EL.         
 -------------------------------------------------------------------------------
      1      1     25      2       100.5           50.00           98.00    
      2      1     25      3       99.50           50.00           97.00    
      3      1     25      4       98.50           50.00           96.00    
      4      1     25      5       97.50           50.00           95.00    
      5      1     25      6       96.50           50.00           94.00    
      6      1     25      7       95.50           50.00           93.00    
      7      1     25      8       94.50           50.00           92.00    
      8      1     25      9       93.50           50.00           91.00    
      9      1     25     10       92.50           50.00           90.00    
     10      1     25     11       91.50           50.00           89.00    
     11      1     25     12       90.50           50.00           88.00    
     12      1     25     13       89.50           50.00           87.00    
     13      1     25     14       88.50           50.00           86.00    
     14      1     25     15       87.50           50.00           85.00    
     15      1     25     16       86.50           50.00           84.00    
     16      1     25     17       85.50           50.00           83.00    
     17      1     25     18       84.50           50.00           82.00    
     18      1     25     19       83.50           50.00           81.00    
     19      1     25     20       82.50           50.00           80.00    
     20      1     25     21       81.50           50.00           79.00    
     21      1     25     22       80.50           50.00           78.00    
     22      1     25     23       79.50           50.00           77.00    
     23      1     25     24       78.50           50.00           76.00    
     24      1     25     25       77.50           50.00           75.00    
     25      1     25     26       77.40           50.00           74.90    
     26      1     25     27       77.30           50.00           74.80    
     27      1     25     28       77.20           50.00           74.70    
     28      1     25     29       77.10           50.00           74.60    
     29      1     25     30       77.00           50.00           74.50    
     30      1     25     31       76.90           50.00           74.40    
     31      1     25     32       76.80           50.00           74.30    
     32      1     25     33       76.70           50.00           74.20    
     33      1     25     34       76.60           50.00           74.10    
     34      1     25     35       76.50           50.00           74.00    
     35      1     25     36       76.40           50.00           73.90    
     36      1     25     37       76.30           50.00           73.80    
     37      1     25     38       76.20           50.00           73.70    
     38      1     25     39       76.10           50.00           73.60    
     39      1     25     40       76.00           50.00           73.50    
     40      1     25     41       75.90           50.00           73.40    
     41      1     25     42       75.80           50.00           73.30    
     42      1     25     43       75.70           50.00           73.20    
     43      1     25     44       75.60           50.00           73.10    
     44      1     25     45       75.50           50.00           73.00    
     45      1     25     46       75.40           50.00           72.90    
     46      1     25     47       75.30           50.00           72.80    
     47      1     25     48       75.20           50.00           72.70    
     48      1     25     49       75.10           50.00           72.60    
     49      1     25     50       75.00           50.00           72.50    

     49 RIVER REACHES



                         ET SURFACE
 READING ON UNIT   22 WITH FORMAT: (50E15.6)           



            EVAPOTRANSPIRATION RATE
 READING ON UNIT   22 WITH FORMAT: (50E15.6)           

         EXTINCTION DEPTH =   10.0000    



                           RECHARGE
 READING ON UNIT   19 WITH FORMAT: (50E15.6)           
 
 SOLVING FOR HEAD 

 OUTPUT CONTROL FOR STRESS PERIOD    1   TIME STEP    1
    SAVE HEAD FOR ALL LAYERS
    SAVE DRAWDOWN FOR ALL LAYERS
    SAVE BUDGET
    PRINT HEAD FOR ALL LAYERS
    PRINT BUDGET
 UBDSV2 SAVING "   CONSTANT HEAD" ON UNIT  53 AT TIME STEP  1, STRESS PERIOD   1
 UBDSV1 SAVING "FLOW RIGHT FACE " ON UNIT  53 AT TIME STEP  1, STRESS PERIOD   1
 UBDSV1 SAVING "FLOW FRONT FACE " ON UNIT  53 AT TIME STEP  1, STRESS PERIOD   1
 UBDSV1 SAVING "FLOW LOWER FACE " ON UNIT  53 AT TIME STEP  1, STRESS PERIOD   1
 UBDSV4 SAVING "   RIVER LEAKAGE" ON UNIT  53 AT TIME STEP  1, STRESS PERIOD   1
 UBDSV3 SAVING "              ET" ON UNIT  53 AT TIME STEP  1, STRESS PERIOD   1
 UBDSV3 SAVING "        RECHARGE" ON UNIT  53 AT TIME STEP  1, STRESS PERIOD   1
1
              HEAD IN LAYER   1 AT END OF TIME STEP   1 IN STRESS PERIOD    1
  ---------------------------------------------------------------------------

            1           2           3           4           5           6           7           8           9          10
           11          12          13          14          15          16          17          18          19          20
           21          22          23          24          25          26          27          28          29          30
           31          32          33          34          35          36          37          38          39          40
           41          42          43          44          45          46          47          48          49          50
 ........................................................................................................................
   1    70.00       70.09       70.15       70.19       70.20       70.19       70.16       70.10       70.03       69.95    
        69.85       69.74       69.63       69.51       69.38       69.26       69.16       69.08       69.03       68.99    
        68.97       68.96       68.96       68.97       68.99       69.01       69.04       69.06       69.09       69.12    
        69.15       69.18       69.21       69.24       69.27       69.31       69.35       69.39       69.43       69.47    
        69.51       69.56       69.61       69.66       69.72       69.77       69.83       69.88       69.94       70.00    
   2    70.00       70.09       70.15       70.19       70.20       70.19       70.15       70.09       70.02       69.93    
        69.83       69.72       69.60       69.48       69.36       69.23       69.13       69.06       69.01       68.97    
        68.96       68.95       68.96       68.97       68.99       69.01       69.03       69.06       69.09       69.12    
        69.15       69.18       69.21       69.24       69.27       69.31       69.35       69.38       69.42       69.47    
        69.51       69.56       69.61       69.66       69.71       69.77       69.83       69.88       69.94       70.00    
   3    70.00       70.09       70.15       70.18       70.19       70.17       70.13       70.07       69.99       69.90    
        69.79       69.68       69.55       69.43       69.31       69.18       69.09       69.02       68.97       68.94    
        68.93       68.93       68.94       68.96       68.98       69.00       69.03       69.06       69.09       69.11    
        69.14       69.17       69.21       69.24       69.27       69.31       69.34       69.38       69.42       69.46    
        69.51       69.56       69.61       69.66       69.71       69.77       69.82       69.88       69.94       70.00    
   4    70.00       70.09       70.14       70.17       70.18       70.15       70.11       70.04       69.95       69.85    
        69.73       69.61       69.48       69.35       69.22       69.10       69.01       68.95       68.91       68.89    
        68.89       68.90       68.92       68.94       68.97       69.00       69.02       69.05       69.08       69.11    
        69.14       69.17       69.20       69.23       69.27       69.30       69.34       69.37       69.41       69.46    
        69.50       69.55       69.60       69.65       69.71       69.76       69.82       69.88       69.94       70.00    
   5    70.00       70.08       70.14       70.16       70.16       70.13       70.08       70.00       69.90       69.78    
        69.65       69.51       69.37       69.24       69.11       68.99       68.91       68.86       68.83       68.83    
        68.84       68.86       68.89       68.92       68.95       68.99       69.02       69.05       69.08       69.11    
        69.14       69.17       69.20       69.23       69.26       69.29       69.33       69.36       69.40       69.45    
        69.49       69.54       69.59       69.64       69.70       69.76       69.82       69.88       69.94       70.00    
   6    70.00       70.08       70.13       70.15       70.14       70.10       70.04       69.95       69.84       69.70    
        69.55       69.39       69.24       69.09       68.95       68.84       68.77       68.74       68.74       68.75    
        68.78       68.82       68.86       68.90       68.94       68.98       69.01       69.05       69.08       69.11    
        69.14       69.17       69.19       69.22       69.25       69.28       69.32       69.35       69.39       69.43    
        69.48       69.53       69.58       69.63       69.69       69.75       69.81       69.87       69.94       70.00    
   7    70.00       70.08       70.12       70.14       70.12       70.08       70.00       69.90       69.76       69.61    
        69.43       69.24       69.06       68.89       68.75       68.64       68.60       68.59       68.62       68.66    
        68.72       68.77       68.83       68.88       68.93       68.97       69.01       69.05       69.08       69.11    
        69.14       69.16       69.19       69.21       69.24       69.27       69.30       69.34       69.38       69.42    
        69.46       69.51       69.57       69.62       69.68       69.74       69.80       69.87       69.93       70.00    
   8    70.00       70.07       70.12       70.13       70.11       70.05       69.96       69.84       69.69       69.50    
        69.29       69.06       68.84       68.64       68.48       68.39       68.38       68.41       68.48       68.56    
        68.65       68.73       68.80       68.86       68.92       68.97       69.01       69.05       69.08       69.11    
        69.13       69.16       69.18       69.21       69.23       69.26       69.29       69.32       69.36       69.40    
        69.45       69.49       69.55       69.61       69.67       69.73       69.79       69.86       69.93       70.00    
   9    70.00       70.07       70.11       70.12       70.09       70.03       69.93       69.79       69.61       69.39    
        69.14       68.85       68.56       68.30       68.12       68.06       68.10       68.21       68.33       68.46    
        68.58       68.69       68.78       68.86       68.92       68.97       69.02       69.06       69.09       69.11    
        69.14       69.16       69.18       69.20       69.22       69.24       69.27       69.30       69.34       69.38    
        69.42       69.47       69.53       69.59       69.65       69.72       69.78       69.86       69.93       70.00    
  10    70.00       70.07       70.11       70.12       70.09       70.02       69.91       69.75       69.55       69.29    
        68.98       68.61       68.22       67.86       67.61       67.61       67.77       67.98       68.18       68.37    
        68.53       68.66       68.77       68.86       68.93       68.99       69.03       69.07       69.10       69.12    
        69.14       69.15       69.17       69.19       69.20       69.22       69.25       69.28       69.31       69.35    
        69.39       69.44       69.50       69.56       69.63       69.70       69.77       69.85       69.92       70.00    
  11    70.00       70.07       70.12       70.13       70.10       70.02       69.91       69.74       69.51       69.21    
        68.84       68.37       67.83       67.25       66.83       67.01       67.38       67.74       68.05       68.31    
        68.51       68.66       68.78       68.88       68.96       69.01       69.06       69.09       69.11       69.13    
        69.14       69.15       69.16       69.17       69.18       69.20       69.22       69.24       69.28       69.31    
        69.36       69.41       69.47       69.54       69.61       69.68       69.76       69.84       69.92       70.00    
  12    70.00       70.08       70.13       70.14       70.11       70.04       69.92       69.75       69.51       69.18    
        68.75       68.19       67.43       66.44       65.40       66.20       66.98       67.56       67.98       68.29    
        68.52       68.69       68.83       68.92       69.00       69.05       69.09       69.12       69.13       69.15    
        69.15       69.15       69.16       69.16       69.16       69.17       69.19       69.21       69.24       69.27    
        69.32       69.37       69.43       69.50       69.58       69.66       69.74       69.82       69.91       70.00    
  13    70.00       70.09       70.15       70.17       70.15       70.09       69.97       69.80       69.55       69.22    
        68.77       68.15       67.22       65.62       61.96       65.38       66.79       67.54       68.02       68.36    
        68.59       68.77       68.90       68.99       69.06       69.11       69.14       69.15       69.16       69.17    
        69.16       69.16       69.15       69.14       69.14       69.14       69.15       69.16       69.19       69.22    
        69.27       69.33       69.39       69.46       69.54       69.63       69.72       69.81       69.90       70.00    
  14    70.00       70.10       70.17       70.21       70.20       70.15       70.05       69.89       69.66       69.35    
        68.94       68.38       67.64       66.66       65.63       66.43       67.22       67.80       68.21       68.51    
        68.73       68.89       69.00       69.08       69.14       69.18       69.19       69.20       69.20       69.19    
        69.18       69.16       69.14       69.12       69.11       69.10       69.10       69.11       69.13       69.16    
        69.21       69.27       69.34       69.42       69.51       69.60       69.69       69.79       69.90       70.00    
  15    70.00       70.12       70.21       70.26       70.27       70.23       70.15       70.02       69.82       69.55    
        69.21       68.77       68.24       67.68       67.28       67.47       67.84       68.21       68.51       68.75    
        68.92       69.05       69.14       69.20       69.24       69.26       69.27       69.26       69.24       69.22    
        69.19       69.16       69.13       69.10       69.07       69.05       69.04       69.04       69.06       69.09    
        69.14       69.20       69.28       69.37       69.46       69.56       69.67       69.78       69.89       70.00    
  16    70.00       70.14       70.25       70.32       70.35       70.34       70.28       70.18       70.02       69.80    
        69.53       69.21       68.85       68.51       68.29       68.30       68.47       68.68       68.87       69.04    
        69.16       69.25       69.31       69.35       69.36       69.36       69.35       69.32       69.29       69.26    
        69.21       69.17       69.12       69.07       69.03       68.99       68.97       68.96       68.97       69.00    
        69.05       69.12       69.21       69.31       69.41       69.52       69.64       69.75       69.88       70.00    
  17    70.00       70.16       70.29       70.39       70.44       70.46       70.43       70.36       70.24       70.08    
        69.88       69.64       69.39       69.17       69.02       68.98       69.04       69.15       69.27       69.37    
        69.44       69.48       69.51       69.51       69.50       69.47       69.44       69.40       69.35       69.29    
        69.24       69.17       69.11       69.05       68.98       68.93       68.88       68.85       68.85       68.89    
        68.95       69.03       69.13       69.24       69.35       69.47       69.60       69.73       69.86       70.00    
  18    70.00       70.19       70.35       70.47       70.55       70.60       70.60       70.56       70.49       70.37    
        70.23       70.06       69.88       69.73       69.62       69.56       69.57       69.62       69.68       69.72    
        69.74       69.74       69.72       69.69       69.64       69.60       69.54       69.48       69.41       69.34    
        69.26       69.18       69.10       69.02       68.93       68.85       68.77       68.72       68.71       68.74    
        68.82       68.93       69.04       69.16       69.29       69.42       69.56       69.70       69.85       70.00    
  19    70.00       70.22       70.41       70.56       70.67       70.75       70.78       70.78       70.74       70.66    
        70.56       70.45       70.32       70.21       70.12       70.06       70.04       70.07       70.10       70.10    
        70.06       70.00       69.94       69.87       69.80       69.73       69.65       69.56       69.48       69.39    
        69.29       69.20       69.09       68.99       68.87       68.76       68.64       68.55       68.51       68.56    
        68.67       68.80       68.94       69.08       69.22       69.37       69.51       69.67       69.83       70.00    
  20    70.00       70.25       70.47       70.66       70.80       70.90       70.97       71.00       70.99       70.95    
        70.89       70.81       70.72       70.64       70.56       70.50       70.49       70.51       70.55       70.51    
        70.39       70.28       70.16       70.06       69.96       69.86       69.76       69.65       69.54       69.44    
        69.33       69.21       69.09       68.96       68.82       68.66       68.49       68.32       68.22       68.32    
        68.50       68.68       68.84       69.00       69.15       69.30       69.46       69.63       69.81       70.00    
  21    70.00       70.29       70.55       70.77       70.94       71.07       71.17       71.22       71.24       71.24    
        71.20       71.15       71.09       71.02       70.96       70.90       70.89       70.93       71.07       71.01    
        70.73       70.54       70.38       70.25       70.12       69.99       69.87       69.74       69.62       69.49    
        69.36       69.23       69.10       68.95       68.78       68.58       68.34       68.03       67.72       68.02    
        68.32       68.56       68.75       68.92       69.08       69.24       69.40       69.57       69.77       70.00    
  22    70.00       70.34       70.64       70.89       71.09       71.25       71.37       71.45       71.50       71.52    
        71.51       71.48       71.43       71.37       71.31       71.25       71.23       71.25       71.37       71.28    
        70.98       70.76       70.58       70.42       70.27       70.13       69.98       69.83       69.68       69.54    
        69.40       69.26       69.12       68.96       68.78       68.55       68.24       67.73       66.64       67.71    
        68.20       68.48       68.69       68.86       69.01       69.17       69.33       69.52       69.73       70.00    
  23    70.00       70.39       70.74       71.02       71.26       71.45       71.59       71.69       71.76       71.79    
        71.80       71.79       71.75       71.70       71.64       71.57       71.52       71.49       71.46       71.35    
        71.15       70.95       70.76       70.58       70.42       70.27       70.10       69.92       69.75       69.60    
        69.45       69.30       69.15       68.99       68.81       68.60       68.35       68.03       67.71       68.00    
        68.28       68.50       68.67       68.83       68.98       69.13       69.30       69.49       69.71       70.00    
  24    70.00       70.47       70.86       71.19       71.45       71.65       71.82       71.94       72.02       72.07    
        72.09       72.09       72.06       72.01       71.95       71.86       71.79       71.71       71.63       71.50    
        71.32       71.13       70.93       70.75       70.60       70.48       70.25       70.03       69.84       69.67    
        69.51       69.36       69.21       69.06       68.90       68.72       68.53       68.34       68.22       68.30    
        68.44       68.59       68.72       68.86       68.99       69.14       69.30       69.50       69.72       70.00    
  25    70.00       70.60       71.03       71.38       71.66       71.88       72.05       72.19       72.28       72.35    
        72.38       72.38       72.36       72.31       72.24       72.15       72.05       71.95       71.84       71.69    
        71.51       71.31       71.11       70.93       70.82       70.90       70.46       70.19       69.98       69.80    
        69.64       69.49       69.35       69.20       69.06       68.91       68.77       68.64       68.57       68.59    
        68.66       68.75       68.86       68.97       69.09       69.23       69.39       69.58       69.80       70.00    
  26    70.00       70.50       70.91       71.26       71.54       71.77       71.96       72.10       72.21       72.28    
        72.32       72.33       72.31       72.26       72.19       72.08       71.98       71.86       71.73       71.57    
        71.38       71.18       70.97       70.77       70.61       70.48       70.24       70.01       69.82       69.64    
        69.49       69.34       69.20       69.06       68.93       68.81       68.70       68.60       68.55       68.54    
        68.58       68.64       68.72       68.81       68.92       69.05       69.21       69.41       69.67       70.00    
  27    70.00       70.44       70.83       71.17       71.45       71.69       71.88       72.03       72.14       72.22    
        72.26       72.27       72.26       72.21       72.13       72.03       71.91       71.79       71.65       71.49    
        71.31       71.11       70.90       70.69       70.50       70.33       70.13       69.93       69.75       69.59    
        69.44       69.30       69.17       69.04       68.93       68.82       68.72       68.65       68.60       68.58    
        68.60       68.64       68.70       68.78       68.88       69.00       69.16       69.36       69.63       70.00    
  28    70.00       70.41       70.78       71.10       71.38       71.62       71.81       71.96       72.08       72.16    
        72.21       72.22       72.21       72.16       72.08       71.97       71.85       71.73       71.59       71.44    
        71.27       71.08       70.88       70.68       70.48       70.29       70.11       69.93       69.77       69.61    
        69.47       69.34       69.21       69.10       68.99       68.89       68.81       68.75       68.70       68.68    
        68.69       68.71       68.76       68.83       68.92       69.03       69.19       69.38       69.65       70.00    
  29    70.00       70.39       70.74       71.05       71.33       71.56       71.75       71.90       72.02       72.11    
        72.16       72.17       72.16       72.11       72.04       71.93       71.81       71.68       71.54       71.40    
        71.24       71.06       70.88       70.70       70.51       70.32       70.15       69.99       69.83       69.69    
        69.55       69.43       69.31       69.20       69.10       69.02       68.94       68.88       68.84       68.82    
        68.82       68.84       68.88       68.93       69.01       69.12       69.26       69.44       69.68       70.00    
  30    70.00       70.37       70.71       71.02       71.28       71.51       71.70       71.86       71.98       72.06    
        72.11       72.13       72.12       72.07       72.00       71.88       71.77       71.64       71.51       71.37    
        71.22       71.06       70.89       70.72       70.55       70.38       70.22       70.06       69.92       69.78    
        69.66       69.54       69.43       69.33       69.24       69.16       69.09       69.04       69.00       68.98    
        68.97       68.99       69.02       69.07       69.14       69.24       69.36       69.53       69.73       70.00    
  31    70.00       70.36       70.69       70.99       71.25       71.47       71.66       71.81       71.93       72.02    
        72.07       72.09       72.08       72.04       71.96       71.85       71.73       71.61       71.48       71.35    
        71.21       71.06       70.90       70.75       70.59       70.44       70.29       70.14       70.01       69.88    
        69.76       69.65       69.55       69.45       69.37       69.29       69.23       69.18       69.15       69.13    
        69.13       69.14       69.17       69.21       69.28       69.37       69.48       69.62       69.79       70.00    
  32    70.00       70.35       70.68       70.96       71.22       71.44       71.63       71.78       71.90       71.98    
        72.04       72.06       72.05       72.00       71.93       71.82       71.71       71.59       71.47       71.34    
        71.20       71.06       70.92       70.77       70.63       70.49       70.35       70.21       70.09       69.97    
        69.85       69.75       69.65       69.56       69.49       69.42       69.36       69.32       69.28       69.27    
        69.26       69.27       69.30       69.34       69.40       69.48       69.58       69.70       69.84       70.00    
  33    70.00       70.35       70.66       70.94       71.20       71.41       71.60       71.75       71.87       71.95    
        72.01       72.03       72.02       71.98       71.90       71.80       71.69       71.57       71.45       71.33    
        71.20       71.07       70.94       70.80       70.67       70.53       70.40       70.28       70.16       70.05    
        69.94       69.84       69.75       69.67       69.59       69.53       69.48       69.43       69.40       69.39    
        69.38       69.39       69.42       69.45       69.51       69.57       69.66       69.76       69.88       70.00    
  34    70.00       70.34       70.65       70.93       71.18       71.39       71.57       71.72       71.84       71.93    
        71.98       72.00       71.99       71.95       71.88       71.78       71.67       71.56       71.44       71.32    
        71.20       71.08       70.95       70.83       70.70       70.58       70.45       70.34       70.23       70.12    
        70.02       69.93       69.84       69.76       69.69       69.63       69.58       69.54       69.51       69.50    
        69.49       69.50       69.52       69.55       69.59       69.65       69.72       69.81       69.90       70.00    
  35    70.00       70.34       70.64       70.92       71.16       71.37       71.55       71.70       71.82       71.90    
        71.96       71.98       71.97       71.93       71.86       71.76       71.66       71.55       71.44       71.32    
        71.21       71.09       70.97       70.85       70.73       70.62       70.50       70.39       70.29       70.18    
        70.09       70.00       69.92       69.85       69.78       69.72       69.68       69.64       69.61       69.59    
        69.58       69.59       69.60       69.63       69.67       69.72       69.78       69.85       69.92       70.00    
  36    70.00       70.33       70.64       70.91       71.15       71.36       71.54       71.68       71.80       71.88    
        71.94       71.96       71.95       71.92       71.85       71.75       71.65       71.54       71.43       71.32    
        71.21       71.10       70.99       70.87       70.76       70.65       70.54       70.44       70.34       70.24    
        70.15       70.07       69.99       69.92       69.86       69.81       69.76       69.72       69.69       69.68    
        69.67       69.67       69.68       69.70       69.73       69.77       69.82       69.88       69.94       70.00    
  37    70.00       70.33       70.63       70.90       71.14       71.34       71.52       71.67       71.78       71.87    
        71.92       71.95       71.94       71.90       71.84       71.74       71.64       71.54       71.43       71.33    
        71.22       71.11       71.00       70.90       70.79       70.69       70.58       70.48       70.39       70.30    
        70.21       70.13       70.06       69.99       69.93       69.88       69.84       69.80       69.77       69.75    
        69.74       69.74       69.75       69.76       69.79       69.82       69.86       69.90       69.95       70.00    
  38    70.00       70.33       70.62       70.89       71.13       71.33       71.51       71.65       71.77       71.85    
        71.91       71.93       71.93       71.89       71.83       71.73       71.63       71.53       71.43       71.33    
        71.23       71.12       71.02       70.92       70.82       70.72       70.62       70.52       70.43       70.35    
        70.27       70.19       70.12       70.05       70.00       69.95       69.90       69.87       69.84       69.82    
        69.80       69.80       69.80       69.81       69.83       69.86       69.89       69.92       69.96       70.00    
  39    70.00       70.33       70.62       70.88       71.12       71.32       71.50       71.64       71.76       71.84    
        71.90       71.92       71.92       71.88       71.82       71.72       71.63       71.53       71.43       71.34    
        71.24       71.14       71.04       70.94       70.84       70.74       70.65       70.56       70.47       70.39    
        70.31       70.24       70.17       70.11       70.05       70.00       69.96       69.93       69.90       69.87    
        69.86       69.85       69.85       69.86       69.87       69.89       69.91       69.94       69.97       70.00    
  40    70.00       70.32       70.62       70.88       71.11       71.32       71.49       71.63       71.75       71.83    
        71.89       71.91       71.91       71.88       71.81       71.72       71.63       71.53       71.44       71.34    
        71.24       71.15       71.05       70.96       70.86       70.77       70.68       70.59       70.51       70.43    
        70.36       70.29       70.22       70.16       70.10       70.06       70.01       69.98       69.95       69.93    
        69.91       69.90       69.90       69.90       69.91       69.92       69.93       69.95       69.98       70.00    
  41    70.00       70.32       70.61       70.88       71.11       71.31       71.48       71.63       71.74       71.82    
        71.88       71.91       71.90       71.87       71.81       71.72       71.63       71.53       71.44       71.35    
        71.25       71.16       71.06       70.97       70.88       70.79       70.71       70.62       70.54       70.47    
        70.39       70.32       70.26       70.20       70.15       70.10       70.06       70.02       69.99       69.97    
        69.95       69.94       69.93       69.93       69.93       69.94       69.95       69.97       69.98       70.00    
  42    70.00       70.32       70.61       70.87       71.10       71.31       71.48       71.62       71.73       71.82    
        71.87       71.90       71.90       71.87       71.80       71.72       71.62       71.53       71.44       71.35    
        71.26       71.17       71.08       70.99       70.90       70.81       70.73       70.65       70.57       70.50    
        70.43       70.36       70.30       70.24       70.19       70.14       70.10       70.06       70.03       70.01    
        69.99       69.97       69.96       69.96       69.96       69.96       69.97       69.98       69.99       70.00    
  43    70.00       70.32       70.61       70.87       71.10       71.30       71.47       71.62       71.73       71.81    
        71.87       71.90       71.89       71.86       71.80       71.71       71.62       71.54       71.45       71.36    
        71.27       71.18       71.09       71.00       70.92       70.83       70.75       70.67       70.60       70.52    
        70.46       70.39       70.33       70.27       70.22       70.18       70.13       70.10       70.07       70.04    
        70.02       70.00       69.99       69.98       69.98       69.98       69.98       69.99       69.99       70.00    
  44    70.00       70.32       70.61       70.87       71.10       71.30       71.47       71.61       71.72       71.81    
        71.86       71.89       71.89       71.86       71.80       71.71       71.62       71.54       71.45       71.36    
        71.27       71.18       71.10       71.01       70.93       70.85       70.77       70.69       70.62       70.55    
        70.48       70.42       70.36       70.30       70.25       70.21       70.16       70.13       70.10       70.07    
        70.05       70.03       70.01       70.00       70.00       69.99       69.99       69.99       70.00       70.00    
  45    70.00       70.32       70.61       70.87       71.10       71.30       71.47       71.61       71.72       71.81    
        71.86       71.89       71.89       71.86       71.80       71.71       71.63       71.54       71.45       71.36    
        71.28       71.19       71.11       71.02       70.94       70.86       70.78       70.71       70.64       70.57    
        70.50       70.44       70.38       70.33       70.28       70.23       70.19       70.15       70.12       70.09    
        70.07       70.05       70.03       70.02       70.01       70.01       70.00       70.00       70.00       70.00    
  46    70.00       70.32       70.61       70.86       71.09       71.29       71.46       71.61       71.72       71.80    
        71.86       71.89       71.89       71.86       71.80       71.71       71.63       71.54       71.45       71.37    
        71.28       71.20       71.11       71.03       70.95       70.87       70.80       70.72       70.65       70.58    
        70.52       70.46       70.40       70.35       70.30       70.25       70.21       70.17       70.14       70.11    
        70.09       70.07       70.05       70.03       70.02       70.02       70.01       70.01       70.00       70.00    
  47    70.00       70.32       70.61       70.86       71.09       71.29       71.46       71.60       71.72       71.80    
        71.86       71.88       71.88       71.85       71.80       71.71       71.63       71.54       71.46       71.37    
        71.29       71.20       71.12       71.04       70.96       70.88       70.81       70.73       70.66       70.60    
        70.53       70.47       70.41       70.36       70.31       70.27       70.22       70.19       70.15       70.13    
        70.10       70.08       70.06       70.05       70.03       70.02       70.02       70.01       70.00       70.00    
  48    70.00       70.32       70.60       70.86       71.09       71.29       71.46       71.60       71.72       71.80    
        71.86       71.88       71.88       71.85       71.80       71.71       71.63       71.54       71.46       71.37    
        71.29       71.21       71.12       71.04       70.97       70.89       70.81       70.74       70.67       70.61    
        70.54       70.48       70.42       70.37       70.32       70.28       70.24       70.20       70.17       70.14    
        70.11       70.09       70.07       70.05       70.04       70.03       70.02       70.01       70.01       70.00    
  49    70.00       70.32       70.60       70.86       71.09       71.29       71.46       71.60       71.71       71.80    
        71.85       71.88       71.88       71.85       71.80       71.71       71.63       71.54       71.46       71.37    
        71.29       71.21       71.13       71.05       70.97       70.89       70.82       70.75       70.68       70.61    
        70.55       70.49       70.43       70.38       70.33       70.29       70.24       70.21       70.17       70.14    
        70.12       70.09       70.08       70.06       70.04       70.03       70.02       70.01       70.01       70.00    
  50    70.00       70.32       70.60       70.86       71.09       71.29       71.46       71.60       71.71       71.80    
        71.85       71.88       71.88       71.85       71.80       71.71       71.63       71.54       71.46       71.38    
        71.29       71.21       71.13       71.05       70.97       70.90       70.82       70.75       70.68       70.61    
        70.55       70.49       70.44       70.38       70.33       70.29       70.25       70.21       70.18       70.15    
        70.12       70.10       70.08       70.06       70.05       70.03       70.02       70.02       70.01       70.00    
1
              HEAD IN LAYER   2 AT END OF TIME STEP   1 IN STRESS PERIOD    1
  ---------------------------------------------------------------------------

            1           2           3           4           5           6           7           8           9          10
           11          12          13          14          15          16          17          18          19          20
           21          22          23          24          25          26          27          28          29          30
           31          32          33          34          35          36          37          38          39          40
           41          42          43          44          45          46          47          48          49          50
 ........................................................................................................................
   1    70.00       70.09       70.15       70.19       70.20       70.19       70.16       70.10       70.03       69.95    
        69.85       69.74       69.63       69.51       69.38       69.26       69.16       69.08       69.03       68.99    
        68.97       68.96       68.96       68.97       68.99       69.01       69.04       69.06       69.09       69.12    
        69.15       69.18       69.21       69.24       69.27       69.31       69.35       69.39       69.43       69.47    
        69.51       69.56       69.61       69.66       69.72       69.77       69.83       69.88       69.94       70.00    
   2    70.00       70.09       70.15       70.19       70.20       70.19       70.15       70.09       70.02       69.93    
        69.83       69.72       69.60       69.48       69.36       69.23       69.13       69.06       69.01       68.97    
        68.96       68.95       68.96       68.97       68.99       69.01       69.03       69.06       69.09       69.12    
        69.15       69.18       69.21       69.24       69.27       69.31       69.35       69.38       69.42       69.47    
        69.51       69.56       69.61       69.66       69.71       69.77       69.83       69.88       69.94       70.00    
   3    70.00       70.09       70.15       70.18       70.19       70.17       70.13       70.07       69.99       69.90    
        69.79       69.68       69.55       69.43       69.31       69.18       69.09       69.02       68.97       68.94    
        68.93       68.93       68.94       68.96       68.98       69.00       69.03       69.06       69.09       69.11    
        69.14       69.17       69.21       69.24       69.27       69.31       69.34       69.38       69.42       69.46    
        69.51       69.56       69.61       69.66       69.71       69.77       69.82       69.88       69.94       70.00    
   4    70.00       70.09       70.14       70.17       70.18       70.15       70.11       70.04       69.95       69.85    
        69.73       69.61       69.48       69.35       69.22       69.10       69.01       68.95       68.91       68.89    
        68.89       68.90       68.92       68.94       68.97       69.00       69.02       69.05       69.08       69.11    
        69.14       69.17       69.20       69.23       69.27       69.30       69.34       69.37       69.41       69.46    
        69.50       69.55       69.60       69.65       69.71       69.76       69.82       69.88       69.94       70.00    
   5    70.00       70.08       70.14       70.16       70.16       70.13       70.08       70.00       69.90       69.78    
        69.65       69.51       69.37       69.24       69.11       68.99       68.91       68.86       68.83       68.83    
        68.84       68.86       68.89       68.92       68.95       68.99       69.02       69.05       69.08       69.11    
        69.14       69.17       69.20       69.23       69.26       69.29       69.33       69.36       69.40       69.45    
        69.49       69.54       69.59       69.64       69.70       69.76       69.82       69.88       69.94       70.00    
   6    70.00       70.08       70.13       70.15       70.14       70.10       70.04       69.95       69.84       69.70    
        69.55       69.39       69.24       69.09       68.95       68.84       68.77       68.74       68.74       68.75    
        68.78       68.82       68.86       68.90       68.94       68.98       69.01       69.05       69.08       69.11    
        69.14       69.17       69.19       69.22       69.25       69.28       69.32       69.35       69.39       69.43    
        69.48       69.53       69.58       69.63       69.69       69.75       69.81       69.87       69.94       70.00    
   7    70.00       70.08       70.12       70.14       70.12       70.08       70.00       69.90       69.76       69.61    
        69.43       69.24       69.06       68.89       68.75       68.64       68.60       68.59       68.62       68.66    
        68.72       68.77       68.83       68.88       68.93       68.97       69.01       69.05       69.08       69.11    
        69.14       69.16       69.19       69.21       69.24       69.27       69.30       69.34       69.38       69.42    
        69.46       69.51       69.57       69.62       69.68       69.74       69.80       69.87       69.93       70.00    
   8    70.00       70.07       70.12       70.13       70.11       70.05       69.96       69.84       69.69       69.50    
        69.29       69.06       68.84       68.64       68.48       68.39       68.38       68.41       68.48       68.56    
        68.65       68.73       68.80       68.86       68.92       68.97       69.01       69.05       69.08       69.11    
        69.13       69.16       69.18       69.21       69.23       69.26       69.29       69.32       69.36       69.40    
        69.45       69.49       69.55       69.61       69.67       69.73       69.79       69.86       69.93       70.00    
   9    70.00       70.07       70.11       70.12       70.09       70.03       69.93       69.79       69.61       69.39    
        69.14       68.85       68.56       68.30       68.12       68.06       68.10       68.21       68.33       68.46    
        68.58       68.69       68.78       68.86       68.92       68.97       69.02       69.06       69.09       69.11    
        69.14       69.16       69.18       69.20       69.22       69.24       69.27       69.30       69.34       69.38    
        69.42       69.47       69.53       69.59       69.65       69.72       69.78       69.86       69.93       70.00    
  10    70.00       70.07       70.11       70.12       70.09       70.02       69.91       69.75       69.55       69.29    
        68.98       68.61       68.22       67.86       67.61       67.61       67.77       67.98       68.18       68.37    
        68.53       68.66       68.77       68.86       68.93       68.99       69.03       69.07       69.10       69.12    
        69.14       69.15       69.17       69.19       69.20       69.22       69.25       69.28       69.31       69.35    
        69.39       69.44       69.50       69.56       69.63       69.70       69.77       69.85       69.92       70.00    
  11    70.00       70.07       70.12       70.13       70.10       70.02       69.91       69.74       69.51       69.21    
        68.84       68.37       67.83       67.25       66.83       67.01       67.38       67.74       68.05       68.31    
        68.51       68.66       68.78       68.88       68.96       69.01       69.06       69.09       69.11       69.13    
        69.14       69.15       69.16       69.17       69.18       69.20       69.22       69.24       69.28       69.31    
        69.36       69.41       69.47       69.54       69.61       69.68       69.76       69.84       69.92       70.00    
  12    70.00       70.08       70.13       70.14       70.11       70.04       69.92       69.75       69.51       69.18    
        68.75       68.19       67.43       66.44       65.40       66.20       66.98       67.56       67.98       68.29    
        68.52       68.69       68.83       68.92       69.00       69.05       69.09       69.12       69.13       69.15    
        69.15       69.15       69.16       69.16       69.16       69.17       69.19       69.21       69.24       69.27    
        69.32       69.37       69.43       69.50       69.58       69.66       69.74       69.82       69.91       70.00    
  13    70.00       70.09       70.15       70.17       70.15       70.09       69.97       69.80       69.55       69.22    
        68.77       68.15       67.22       65.62       61.97       65.38       66.79       67.54       68.02       68.36    
        68.59       68.77       68.90       68.99       69.06       69.11       69.14       69.15       69.16       69.17    
        69.16       69.16       69.15       69.14       69.14       69.14       69.15       69.16       69.19       69.22    
        69.27       69.33       69.39       69.46       69.54       69.63       69.72       69.81       69.90       70.00    
  14    70.00       70.10       70.17       70.21       70.20       70.15       70.05       69.89       69.66       69.35    
        68.94       68.38       67.64       66.66       65.63       66.43       67.22       67.80       68.21       68.51    
        68.73       68.89       69.00       69.08       69.14       69.18       69.19       69.20       69.20       69.19    
        69.18       69.16       69.14       69.12       69.11       69.10       69.10       69.11       69.13       69.16    
        69.21       69.27       69.34       69.42       69.51       69.60       69.69       69.79       69.90       70.00    
  15    70.00       70.12       70.21       70.26       70.27       70.23       70.15       70.02       69.82       69.55    
        69.21       68.77       68.24       67.68       67.28       67.47       67.84       68.21       68.51       68.75    
        68.92       69.05       69.14       69.20       69.24       69.26       69.27       69.26       69.24       69.22    
        69.19       69.16       69.13       69.10       69.07       69.05       69.04       69.04       69.06       69.09    
        69.14       69.20       69.28       69.37       69.46       69.56       69.67       69.78       69.89       70.00    
  16    70.00       70.14       70.25       70.32       70.35       70.34       70.28       70.18       70.02       69.80    
        69.53       69.21       68.85       68.51       68.29       68.30       68.47       68.68       68.87       69.04    
        69.16       69.25       69.31       69.35       69.36       69.36       69.35       69.32       69.29       69.26    
        69.21       69.17       69.12       69.07       69.03       68.99       68.97       68.96       68.97       69.00    
        69.05       69.12       69.21       69.31       69.41       69.52       69.64       69.75       69.88       70.00    
  17    70.00       70.16       70.29       70.39       70.44       70.46       70.43       70.36       70.24       70.08    
        69.88       69.64       69.39       69.17       69.02       68.98       69.04       69.15       69.27       69.37    
        69.44       69.48       69.51       69.51       69.50       69.47       69.44       69.40       69.35       69.29    
        69.24       69.17       69.11       69.05       68.98       68.93       68.88       68.85       68.85       68.89    
        68.95       69.03       69.13       69.24       69.35       69.47       69.60       69.73       69.86       70.00    
  18    70.00       70.19       70.35       70.47       70.55       70.60       70.60       70.56       70.49       70.37    
        70.23       70.06       69.88       69.73       69.62       69.56       69.57       69.62       69.68       69.72    
        69.74       69.74       69.72       69.69       69.64       69.60       69.54       69.48       69.41       69.34    
        69.26       69.18       69.10       69.02       68.93       68.85       68.77       68.72       68.71       68.74    
        68.82       68.93       69.04       69.16       69.29       69.42       69.56       69.70       69.85       70.00    
  19    70.00       70.22       70.41       70.56       70.67       70.75       70.78       70.78       70.74       70.66    
        70.56       70.45       70.32       70.21       70.12       70.06       70.04       70.07       70.10       70.10    
        70.06       70.00       69.94       69.87       69.80       69.73       69.65       69.56       69.48       69.39    
        69.29       69.20       69.09       68.99       68.87       68.76       68.64       68.55       68.51       68.56    
        68.67       68.80       68.94       69.08       69.22       69.37       69.51       69.67       69.83       70.00    
  20    70.00       70.25       70.47       70.66       70.80       70.90       70.97       71.00       70.99       70.95    
        70.89       70.81       70.72       70.64       70.56       70.50       70.49       70.51       70.55       70.51    
        70.39       70.28       70.16       70.06       69.96       69.86       69.76       69.65       69.54       69.44    
        69.33       69.21       69.09       68.96       68.82       68.66       68.49       68.32       68.22       68.32    
        68.50       68.68       68.84       69.00       69.15       69.30       69.46       69.63       69.81       70.00    
  21    70.00       70.29       70.55       70.77       70.94       71.07       71.17       71.22       71.24       71.24    
        71.20       71.15       71.09       71.02       70.96       70.90       70.89       70.93       71.07       71.01    
        70.73       70.54       70.38       70.25       70.12       69.99       69.87       69.74       69.62       69.49    
        69.36       69.23       69.10       68.95       68.78       68.58       68.34       68.03       67.72       68.02    
        68.32       68.56       68.75       68.92       69.08       69.24       69.40       69.57       69.77       70.00    
  22    70.00       70.34       70.64       70.89       71.09       71.25       71.37       71.45       71.50       71.52    
        71.51       71.48       71.43       71.37       71.31       71.25       71.23       71.25       71.37       71.28    
        70.98       70.76       70.58       70.42       70.27       70.13       69.98       69.83       69.68       69.54    
        69.40       69.26       69.12       68.96       68.78       68.55       68.24       67.73       66.61       67.71    
        68.20       68.48       68.69       68.86       69.02       69.17       69.33       69.52       69.74       70.00    
  23    70.00       70.39       70.74       71.02       71.26       71.45       71.59       71.69       71.76       71.79    
        71.80       71.79       71.75       71.70       71.64       71.57       71.52       71.49       71.46       71.35    
        71.15       70.95       70.76       70.59       70.42       70.27       70.10       69.92       69.75       69.60    
        69.45       69.30       69.15       68.99       68.81       68.60       68.35       68.03       67.71       68.00    
        68.28       68.50       68.68       68.83       68.98       69.13       69.30       69.49       69.71       70.00    
  24    70.00       70.47       70.86       71.19       71.45       71.65       71.82       71.94       72.02       72.07    
        72.09       72.09       72.06       72.01       71.95       71.86       71.79       71.71       71.63       71.50    
        71.32       71.13       70.93       70.75       70.60       70.48       70.25       70.03       69.84       69.67    
        69.52       69.36       69.21       69.06       68.90       68.72       68.53       68.35       68.22       68.30    
        68.44       68.59       68.73       68.86       69.00       69.14       69.31       69.50       69.72       70.00    
  25    70.00       70.60       71.03       71.38       71.66       71.88       72.05       72.19       72.28       72.35    
        72.38       72.38       72.36       72.31       72.24       72.15       72.05       71.95       71.84       71.69    
        71.51       71.31       71.11       70.93       70.82       70.89       70.45       70.18       69.98       69.80    
        69.64       69.49       69.34       69.20       69.05       68.91       68.76       68.64       68.57       68.59    
        68.66       68.75       68.86       68.97       69.09       69.23       69.39       69.58       69.80       70.00    
  26    70.00       70.50       70.91       71.26       71.54       71.77       71.96       72.10       72.21       72.28    
        72.32       72.33       72.31       72.26       72.19       72.08       71.98       71.86       71.73       71.57    
        71.38       71.18       70.97       70.78       70.61       70.48       70.24       70.01       69.82       69.64    
        69.49       69.34       69.20       69.07       68.94       68.81       68.70       68.61       68.55       68.55    
        68.58       68.64       68.72       68.81       68.92       69.06       69.22       69.42       69.67       70.00    
  27    70.00       70.44       70.83       71.17       71.45       71.69       71.88       72.03       72.14       72.22    
        72.26       72.27       72.26       72.21       72.13       72.03       71.91       71.79       71.65       71.49    
        71.31       71.11       70.90       70.70       70.50       70.33       70.13       69.94       69.76       69.59    
        69.44       69.30       69.17       69.04       68.93       68.82       68.72       68.65       68.60       68.58    
        68.60       68.64       68.70       68.78       68.88       69.00       69.16       69.37       69.63       70.00    
  28    70.00       70.41       70.78       71.10       71.38       71.62       71.81       71.96       72.08       72.16    
        72.21       72.22       72.21       72.16       72.08       71.97       71.85       71.73       71.59       71.44    
        71.27       71.08       70.88       70.68       70.48       70.29       70.11       69.93       69.77       69.61    
        69.47       69.34       69.22       69.10       68.99       68.90       68.81       68.75       68.70       68.68    
        68.69       68.71       68.76       68.83       68.92       69.03       69.19       69.38       69.65       70.00    
  29    70.00       70.39       70.74       71.05       71.33       71.56       71.75       71.90       72.02       72.11    
        72.16       72.17       72.16       72.11       72.04       71.93       71.81       71.68       71.54       71.40    
        71.24       71.06       70.88       70.70       70.51       70.32       70.15       69.99       69.83       69.69    
        69.55       69.43       69.31       69.20       69.10       69.02       68.94       68.88       68.84       68.82    
        68.82       68.84       68.88       68.93       69.01       69.12       69.26       69.45       69.69       70.00    
  30    70.00       70.37       70.71       71.02       71.28       71.51       71.70       71.86       71.98       72.06    
        72.11       72.13       72.12       72.07       72.00       71.88       71.77       71.64       71.51       71.37    
        71.22       71.06       70.89       70.72       70.55       70.38       70.22       70.06       69.92       69.78    
        69.66       69.54       69.43       69.33       69.24       69.16       69.09       69.04       69.00       68.98    
        68.97       68.99       69.02       69.07       69.14       69.24       69.37       69.53       69.74       70.00    
  31    70.00       70.36       70.69       70.99       71.25       71.47       71.66       71.81       71.93       72.02    
        72.07       72.09       72.08       72.04       71.96       71.85       71.73       71.61       71.48       71.35    
        71.21       71.06       70.90       70.75       70.59       70.44       70.29       70.14       70.01       69.88    
        69.76       69.65       69.55       69.45       69.37       69.29       69.23       69.18       69.15       69.13    
        69.13       69.14       69.17       69.21       69.28       69.37       69.48       69.62       69.79       70.00    
  32    70.00       70.35       70.68       70.96       71.22       71.44       71.63       71.78       71.90       71.98    
        72.04       72.06       72.05       72.00       71.93       71.82       71.71       71.59       71.47       71.34    
        71.20       71.06       70.92       70.77       70.63       70.49       70.35       70.21       70.09       69.97    
        69.85       69.75       69.65       69.56       69.49       69.42       69.36       69.32       69.28       69.27    
        69.26       69.27       69.30       69.34       69.40       69.48       69.58       69.70       69.84       70.00    
  33    70.00       70.35       70.66       70.94       71.20       71.41       71.60       71.75       71.87       71.95    
        72.01       72.03       72.02       71.98       71.90       71.80       71.69       71.57       71.45       71.33    
        71.20       71.07       70.94       70.80       70.67       70.53       70.40       70.28       70.16       70.05    
        69.94       69.84       69.75       69.67       69.59       69.53       69.48       69.43       69.40       69.39    
        69.38       69.39       69.42       69.45       69.51       69.57       69.66       69.76       69.88       70.00    
  34    70.00       70.34       70.65       70.93       71.18       71.39       71.57       71.72       71.84       71.93    
        71.98       72.00       71.99       71.95       71.88       71.78       71.67       71.56       71.44       71.32    
        71.20       71.08       70.95       70.83       70.70       70.58       70.45       70.34       70.23       70.12    
        70.02       69.93       69.84       69.76       69.69       69.63       69.58       69.54       69.51       69.50    
        69.49       69.50       69.52       69.55       69.59       69.65       69.72       69.81       69.90       70.00    
  35    70.00       70.34       70.64       70.92       71.16       71.37       71.55       71.70       71.82       71.90    
        71.96       71.98       71.97       71.93       71.86       71.76       71.66       71.55       71.44       71.32    
        71.21       71.09       70.97       70.85       70.73       70.62       70.50       70.39       70.29       70.18    
        70.09       70.00       69.92       69.85       69.78       69.72       69.68       69.64       69.61       69.59    
        69.58       69.59       69.60       69.63       69.67       69.72       69.78       69.85       69.92       70.00    
  36    70.00       70.33       70.64       70.91       71.15       71.36       71.54       71.68       71.80       71.88    
        71.94       71.96       71.95       71.92       71.85       71.75       71.65       71.54       71.43       71.32    
        71.21       71.10       70.99       70.87       70.76       70.65       70.54       70.44       70.34       70.24    
        70.15       70.07       69.99       69.92       69.86       69.81       69.76       69.72       69.69       69.68    
        69.67       69.67       69.68       69.70       69.73       69.77       69.82       69.88       69.94       70.00    
  37    70.00       70.33       70.63       70.90       71.14       71.34       71.52       71.67       71.78       71.87    
        71.92       71.95       71.94       71.90       71.84       71.74       71.64       71.54       71.43       71.33    
        71.22       71.11       71.00       70.90       70.79       70.69       70.58       70.48       70.39       70.30    
        70.21       70.13       70.06       69.99       69.93       69.88       69.84       69.80       69.77       69.75    
        69.74       69.74       69.75       69.76       69.79       69.82       69.86       69.90       69.95       70.00    
  38    70.00       70.33       70.62       70.89       71.13       71.33       71.51       71.65       71.77       71.85    
        71.91       71.93       71.93       71.89       71.83       71.73       71.63       71.53       71.43       71.33    
        71.23       71.12       71.02       70.92       70.82       70.72       70.62       70.52       70.43       70.35    
        70.27       70.19       70.12       70.05       70.00       69.95       69.90       69.87       69.84       69.82    
        69.80       69.80       69.80       69.81       69.83       69.86       69.89       69.92       69.96       70.00    
  39    70.00       70.33       70.62       70.88       71.12       71.32       71.50       71.64       71.76       71.84    
        71.90       71.92       71.92       71.88       71.82       71.72       71.63       71.53       71.43       71.34    
        71.24       71.14       71.04       70.94       70.84       70.74       70.65       70.56       70.47       70.39    
        70.31       70.24       70.17       70.11       70.05       70.00       69.96       69.93       69.90       69.87    
        69.86       69.85       69.85       69.86       69.87       69.89       69.91       69.94       69.97       70.00    
  40    70.00       70.32       70.62       70.88       71.11       71.32       71.49       71.63       71.75       71.83    
        71.89       71.91       71.91       71.88       71.81       71.72       71.63       71.53       71.44       71.34    
        71.24       71.15       71.05       70.96       70.86       70.77       70.68       70.59       70.51       70.43    
        70.36       70.29       70.22       70.16       70.10       70.06       70.01       69.98       69.95       69.93    
        69.91       69.90       69.90       69.90       69.91       69.92       69.93       69.95       69.98       70.00    
  41    70.00       70.32       70.61       70.88       71.11       71.31       71.48       71.63       71.74       71.82    
        71.88       71.91       71.90       71.87       71.81       71.72       71.63       71.53       71.44       71.35    
        71.25       71.16       71.06       70.97       70.88       70.79       70.71       70.62       70.54       70.47    
        70.39       70.32       70.26       70.20       70.15       70.10       70.06       70.02       69.99       69.97    
        69.95       69.94       69.93       69.93       69.93       69.94       69.95       69.97       69.98       70.00    
  42    70.00       70.32       70.61       70.87       71.10       71.31       71.48       71.62       71.73       71.82    
        71.87       71.90       71.90       71.87       71.80       71.72       71.62       71.53       71.44       71.35    
        71.26       71.17       71.08       70.99       70.90       70.81       70.73       70.65       70.57       70.50    
        70.43       70.36       70.30       70.24       70.19       70.14       70.10       70.06       70.03       70.01    
        69.99       69.97       69.96       69.96       69.96       69.96       69.97       69.98       69.99       70.00    
  43    70.00       70.32       70.61       70.87       71.10       71.30       71.47       71.62       71.73       71.81    
        71.87       71.90       71.89       71.86       71.80       71.71       71.62       71.54       71.45       71.36    
        71.27       71.18       71.09       71.00       70.92       70.83       70.75       70.67       70.60       70.52    
        70.46       70.39       70.33       70.27       70.22       70.18       70.13       70.10       70.07       70.04    
        70.02       70.00       69.99       69.98       69.98       69.98       69.98       69.99       69.99       70.00    
  44    70.00       70.32       70.61       70.87       71.10       71.30       71.47       71.61       71.72       71.81    
        71.86       71.89       71.89       71.86       71.80       71.71       71.62       71.54       71.45       71.36    
        71.27       71.18       71.10       71.01       70.93       70.85       70.77       70.69       70.62       70.55    
        70.48       70.42       70.36       70.30       70.25       70.21       70.16       70.13       70.10       70.07    
        70.05       70.03       70.01       70.00       70.00       69.99       69.99       69.99       70.00       70.00    
  45    70.00       70.32       70.61       70.87       71.10       71.30       71.47       71.61       71.72       71.81    
        71.86       71.89       71.89       71.86       71.80       71.71       71.63       71.54       71.45       71.36    
        71.28       71.19       71.11       71.02       70.94       70.86       70.78       70.71       70.64       70.57    
        70.50       70.44       70.38       70.33       70.28       70.23       70.19       70.15       70.12       70.09    
        70.07       70.05       70.03       70.02       70.01       70.01       70.00       70.00       70.00       70.00    
  46    70.00       70.32       70.61       70.86       71.09       71.29       71.46       71.61       71.72       71.80    
        71.86       71.89       71.89       71.86       71.80       71.71       71.63       71.54       71.45       71.37    
        71.28       71.20       71.11       71.03       70.95       70.87       70.80       70.72       70.65       70.58    
        70.52       70.46       70.40       70.35       70.30       70.25       70.21       70.17       70.14       70.11    
        70.09       70.07       70.05       70.03       70.02       70.02       70.01       70.01       70.00       70.00    
  47    70.00       70.32       70.61       70.86       71.09       71.29       71.46       71.60       71.72       71.80    
        71.86       71.88       71.88       71.85       71.80       71.71       71.63       71.54       71.46       71.37    
        71.29       71.20       71.12       71.04       70.96       70.88       70.81       70.73       70.66       70.60    
        70.53       70.47       70.41       70.36       70.31       70.27       70.22       70.19       70.15       70.13    
        70.10       70.08       70.06       70.05       70.03       70.02       70.02       70.01       70.00       70.00    
  48    70.00       70.32       70.60       70.86       71.09       71.29       71.46       71.60       71.72       71.80    
        71.86       71.88       71.88       71.85       71.80       71.71       71.63       71.54       71.46       71.37    
        71.29       71.21       71.12       71.04       70.97       70.89       70.81       70.74       70.67       70.61    
        70.54       70.48       70.42       70.37       70.32       70.28       70.24       70.20       70.17       70.14    
        70.11       70.09       70.07       70.05       70.04       70.03       70.02       70.01       70.01       70.00    
  49    70.00       70.32       70.60       70.86       71.09       71.29       71.46       71.60       71.71       71.80    
        71.85       71.88       71.88       71.85       71.80       71.71       71.63       71.54       71.46       71.37    
        71.29       71.21       71.13       71.05       70.97       70.89       70.82       70.75       70.68       70.61    
        70.55       70.49       70.43       70.38       70.33       70.29       70.24       70.21       70.17       70.14    
        70.12       70.09       70.08       70.06       70.04       70.03       70.02       70.01       70.01       70.00    
  50    70.00       70.32       70.60       70.86       71.09       71.29       71.46       71.60       71.71       71.80    
        71.85       71.88       71.88       71.85       71.80       71.71       71.63       71.54       71.46       71.38    
        71.29       71.21       71.13       71.05       70.97       70.90       70.82       70.75       70.68       70.61    
        70.55       70.49       70.44       70.38       70.33       70.29       70.25       70.21       70.18       70.15    
        70.12       70.10       70.08       70.06       70.05       70.03       70.02       70.02       70.01       70.00    
1
              HEAD IN LAYER   3 AT END OF TIME STEP   1 IN STRESS PERIOD    1
  ---------------------------------------------------------------------------

            1           2           3           4           5           6           7           8           9          10
           11          12          13          14          15          16          17          18          19          20
           21          22          23          24          25          26          27          28          29          30
[...]
        71.15       70.95       70.76       70.59       70.42       70.27       70.10       69.92       69.75       69.60    
        69.45       69.30       69.15       68.99       68.81       68.60       68.35       68.03       67.71       68.00    
        68.28       68.50       68.68       68.83       68.98       69.13       69.30       69.49       69.71       70.00    
  24    70.00       70.47       70.86       71.19       71.45       71.65       71.82       71.94       72.02       72.07    
        72.09       72.09       72.06       72.01       71.95       71.86       71.79       71.71       71.63       71.50    
        71.32       71.13       70.93       70.75       70.60       70.48       70.25       70.03       69.84       69.67    
        69.52       69.37       69.22       69.06       68.90       68.72       68.53       68.35       68.22       68.30    
        68.44       68.59       68.73       68.86       69.00       69.14       69.31       69.50       69.72       70.00    
  25    70.00       70.60       71.03       71.38       71.66       71.88       72.05       72.19       72.28       72.35    
        72.38       72.38       72.36       72.31       72.24       72.15       72.05       71.95       71.84       71.69    
        71.51       71.31       71.11       70.93       70.82       70.87       70.45       70.18       69.97       69.80    
        69.64       69.49       69.34       69.20       69.05       68.90       68.76       68.64       68.57       68.58    
        68.65       68.75       68.85       68.96       69.09       69.23       69.39       69.58       69.79       70.00    
  26    70.00       70.50       70.91       71.26       71.54       71.77       71.96       72.10       72.21       72.28    
        72.32       72.33       72.31       72.26       72.19       72.08       71.98       71.86       71.73       71.57    
        71.38       71.18       70.97       70.78       70.61       70.49       70.24       70.01       69.82       69.65    
        69.49       69.34       69.20       69.07       68.94       68.81       68.70       68.61       68.55       68.55    
        68.58       68.64       68.72       68.81       68.92       69.06       69.22       69.42       69.67       70.00    
  27    70.00       70.44       70.83       71.17       71.45       71.69       71.88       72.03       72.14       72.22    
        72.26       72.27       72.26       72.21       72.13       72.03       71.91       71.79       71.65       71.49    
        71.31       71.11       70.90       70.70       70.51       70.33       70.13       69.94       69.76       69.59    
        69.44       69.30       69.17       69.04       68.93       68.82       68.72       68.65       68.60       68.59    
        68.60       68.64       68.70       68.78       68.88       69.00       69.16       69.37       69.64       70.00    
  28    70.00       70.41       70.78       71.10       71.38       71.62       71.81       71.96       72.08       72.16    
        72.21       72.22       72.21       72.16       72.08       71.97       71.85       71.73       71.59       71.44    
        71.27       71.08       70.88       70.68       70.48       70.29       70.11       69.93       69.77       69.62    
        69.47       69.34       69.22       69.10       68.99       68.90       68.81       68.75       68.70       68.68    
        68.69       68.71       68.76       68.83       68.92       69.03       69.19       69.39       69.65       70.00    
  29    70.00       70.39       70.74       71.05       71.33       71.56       71.75       71.90       72.02       72.11    
        72.16       72.17       72.16       72.11       72.04       71.93       71.81       71.68       71.54       71.40    
        71.24       71.06       70.88       70.70       70.51       70.32       70.15       69.99       69.83       69.69    
        69.55       69.43       69.31       69.20       69.11       69.02       68.94       68.88       68.84       68.82    
        68.82       68.84       68.88       68.93       69.01       69.12       69.26       69.45       69.69       70.00    
  30    70.00       70.37       70.71       71.02       71.28       71.51       71.70       71.86       71.98       72.06    
        72.11       72.13       72.12       72.07       72.00       71.88       71.77       71.64       71.51       71.37    
        71.22       71.06       70.89       70.72       70.55       70.38       70.22       70.06       69.92       69.78    
        69.66       69.54       69.43       69.33       69.24       69.16       69.09       69.04       69.00       68.98    
        68.97       68.99       69.02       69.07       69.14       69.24       69.37       69.53       69.74       70.00    
  31    70.00       70.36       70.69       70.99       71.25       71.47       71.66       71.81       71.93       72.02    
        72.07       72.09       72.08       72.04       71.96       71.85       71.73       71.61       71.48       71.35    
        71.21       71.06       70.90       70.75       70.59       70.44       70.29       70.14       70.01       69.88    
        69.76       69.65       69.55       69.45       69.37       69.29       69.23       69.18       69.15       69.13    
        69.13       69.14       69.17       69.21       69.28       69.37       69.48       69.62       69.79       70.00    
  32    70.00       70.35       70.68       70.96       71.22       71.44       71.63       71.78       71.90       71.98    
        72.04       72.06       72.05       72.00       71.93       71.82       71.71       71.59       71.47       71.34    
        71.20       71.06       70.92       70.77       70.63       70.49       70.35       70.21       70.09       69.97    
        69.85       69.75       69.65       69.56       69.49       69.42       69.36       69.32       69.28       69.27    
        69.26       69.27       69.30       69.34       69.40       69.48       69.58       69.70       69.84       70.00    
  33    70.00       70.35       70.66       70.94       71.20       71.41       71.60       71.75       71.87       71.95    
        72.01       72.03       72.02       71.98       71.90       71.80       71.69       71.57       71.45       71.33    
        71.20       71.07       70.94       70.80       70.67       70.53       70.40       70.28       70.16       70.05    
        69.94       69.84       69.75       69.67       69.59       69.53       69.48       69.43       69.40       69.39    
        69.38       69.39       69.42       69.45       69.51       69.57       69.66       69.76       69.88       70.00    
  34    70.00       70.34       70.65       70.93       71.18       71.39       71.57       71.72       71.84       71.93    
        71.98       72.00       71.99       71.95       71.88       71.78       71.67       71.56       71.44       71.32    
        71.20       71.08       70.95       70.83       70.70       70.58       70.45       70.34       70.23       70.12    
        70.02       69.93       69.84       69.76       69.69       69.63       69.58       69.54       69.51       69.50    
        69.49       69.50       69.52       69.55       69.59       69.65       69.72       69.81       69.90       70.00    
  35    70.00       70.34       70.64       70.92       71.16       71.37       71.55       71.70       71.82       71.90    
        71.96       71.98       71.97       71.93       71.86       71.76       71.66       71.55       71.44       71.32    
        71.21       71.09       70.97       70.85       70.73       70.62       70.50       70.39       70.29       70.18    
        70.09       70.00       69.92       69.85       69.78       69.72       69.68       69.64       69.61       69.59    
        69.58       69.59       69.60       69.63       69.67       69.72       69.78       69.85       69.92       70.00    
  36    70.00       70.33       70.64       70.91       71.15       71.36       71.54       71.68       71.80       71.88    
        71.94       71.96       71.95       71.92       71.85       71.75       71.65       71.54       71.43       71.32    
        71.21       71.10       70.99       70.87       70.76       70.65       70.54       70.44       70.34       70.24    
        70.15       70.07       69.99       69.92       69.86       69.81       69.76       69.72       69.69       69.68    
        69.67       69.67       69.68       69.70       69.73       69.77       69.82       69.88       69.94       70.00    
  37    70.00       70.33       70.63       70.90       71.14       71.34       71.52       71.67       71.78       71.87    
        71.92       71.95       71.94       71.90       71.84       71.74       71.64       71.54       71.43       71.33    
        71.22       71.11       71.00       70.90       70.79       70.69       70.58       70.48       70.39       70.30    
        70.21       70.13       70.06       69.99       69.93       69.88       69.84       69.80       69.77       69.75    
        69.74       69.74       69.75       69.76       69.79       69.82       69.86       69.90       69.95       70.00    
  38    70.00       70.33       70.62       70.89       71.13       71.33       71.51       71.65       71.77       71.85    
        71.91       71.93       71.93       71.89       71.83       71.73       71.63       71.53       71.43       71.33    
        71.23       71.12       71.02       70.92       70.82       70.72       70.62       70.52       70.43       70.35    
        70.27       70.19       70.12       70.05       70.00       69.95       69.90       69.87       69.84       69.82    
        69.80       69.80       69.80       69.81       69.83       69.86       69.89       69.92       69.96       70.00    
  39    70.00       70.33       70.62       70.88       71.12       71.32       71.50       71.64       71.76       71.84    
        71.90       71.92       71.92       71.88       71.82       71.72       71.63       71.53       71.43       71.34    
        71.24       71.14       71.04       70.94       70.84       70.74       70.65       70.56       70.47       70.39    
        70.31       70.24       70.17       70.11       70.05       70.00       69.96       69.93       69.90       69.87    
        69.86       69.85       69.85       69.86       69.87       69.89       69.91       69.94       69.97       70.00    
  40    70.00       70.32       70.62       70.88       71.11       71.32       71.49       71.63       71.75       71.83    
        71.89       71.91       71.91       71.88       71.81       71.72       71.63       71.53       71.44       71.34    
        71.24       71.15       71.05       70.96       70.86       70.77       70.68       70.59       70.51       70.43    
        70.36       70.29       70.22       70.16       70.10       70.06       70.01       69.98       69.95       69.93    
        69.91       69.90       69.90       69.90       69.91       69.92       69.93       69.95       69.98       70.00    
  41    70.00       70.32       70.61       70.88       71.11       71.31       71.48       71.63       71.74       71.82    
        71.88       71.91       71.90       71.87       71.81       71.72       71.63       71.53       71.44       71.35    
        71.25       71.16       71.06       70.97       70.88       70.79       70.71       70.62       70.54       70.47    
        70.39       70.32       70.26       70.20       70.15       70.10       70.06       70.02       69.99       69.97    
        69.95       69.94       69.93       69.93       69.93       69.94       69.95       69.97       69.98       70.00    
  42    70.00       70.32       70.61       70.87       71.10       71.31       71.48       71.62       71.73       71.82    
        71.87       71.90       71.90       71.87       71.80       71.72       71.62       71.53       71.44       71.35    
        71.26       71.17       71.08       70.99       70.90       70.81       70.73       70.65       70.57       70.50    
        70.43       70.36       70.30       70.24       70.19       70.14       70.10       70.06       70.03       70.01    
        69.99       69.97       69.96       69.96       69.96       69.96       69.97       69.98       69.99       70.00    
  43    70.00       70.32       70.61       70.87       71.10       71.30       71.47       71.62       71.73       71.81    
        71.87       71.90       71.89       71.86       71.80       71.71       71.62       71.54       71.45       71.36    
        71.27       71.18       71.09       71.00       70.92       70.83       70.75       70.67       70.60       70.52    
        70.46       70.39       70.33       70.27       70.22       70.18       70.13       70.10       70.07       70.04    
        70.02       70.00       69.99       69.98       69.98       69.98       69.98       69.99       69.99       70.00    
  44    70.00       70.32       70.61       70.87       71.10       71.30       71.47       71.61       71.72       71.81    
        71.86       71.89       71.89       71.86       71.80       71.71       71.62       71.54       71.45       71.36    
        71.27       71.18       71.10       71.01       70.93       70.85       70.77       70.69       70.62       70.55    
        70.48       70.42       70.36       70.30       70.25       70.21       70.16       70.13       70.10       70.07    
        70.05       70.03       70.01       70.00       70.00       69.99       69.99       69.99       70.00       70.00    
  45    70.00       70.32       70.61       70.87       71.10       71.30       71.47       71.61       71.72       71.81    
        71.86       71.89       71.89       71.86       71.80       71.71       71.63       71.54       71.45       71.36    
        71.28       71.19       71.11       71.02       70.94       70.86       70.78       70.71       70.64       70.57    
        70.50       70.44       70.38       70.33       70.28       70.23       70.19       70.15       70.12       70.09    
        70.07       70.05       70.03       70.02       70.01       70.01       70.00       70.00       70.00       70.00    
  46    70.00       70.32       70.61       70.86       71.09       71.29       71.46       71.61       71.72       71.80    
        71.86       71.89       71.89       71.86       71.80       71.71       71.63       71.54       71.45       71.37    
        71.28       71.20       71.11       71.03       70.95       70.87       70.80       70.72       70.65       70.58    
        70.52       70.46       70.40       70.35       70.30       70.25       70.21       70.17       70.14       70.11    
        70.09       70.07       70.05       70.03       70.02       70.02       70.01       70.01       70.00       70.00    
  47    70.00       70.32       70.61       70.86       71.09       71.29       71.46       71.60       71.72       71.80    
        71.86       71.88       71.88       71.85       71.80       71.71       71.63       71.54       71.46       71.37    
        71.29       71.20       71.12       71.04       70.96       70.88       70.81       70.73       70.66       70.60    
        70.53       70.47       70.41       70.36       70.31       70.27       70.22       70.19       70.15       70.13    
        70.10       70.08       70.06       70.05       70.03       70.02       70.02       70.01       70.00       70.00    
  48    70.00       70.32       70.60       70.86       71.09       71.29       71.46       71.60       71.72       71.80    
        71.86       71.88       71.88       71.85       71.80       71.71       71.63       71.54       71.46       71.37    
        71.29       71.21       71.12       71.04       70.97       70.89       70.81       70.74       70.67       70.61    
        70.54       70.48       70.42       70.37       70.32       70.28       70.24       70.20       70.17       70.14    
        70.11       70.09       70.07       70.05       70.04       70.03       70.02       70.01       70.01       70.00    
  49    70.00       70.32       70.60       70.86       71.09       71.29       71.46       71.60       71.71       71.80    
        71.85       71.88       71.88       71.85       71.80       71.71       71.63       71.54       71.46       71.37    
        71.29       71.21       71.13       71.05       70.97       70.89       70.82       70.75       70.68       70.61    
        70.55       70.49       70.43       70.38       70.33       70.29       70.24       70.21       70.17       70.14    
        70.12       70.09       70.08       70.06       70.04       70.03       70.02       70.01       70.01       70.00    
  50    70.00       70.32       70.60       70.86       71.09       71.29       71.46       71.60       71.71       71.80    
        71.85       71.88       71.88       71.85       71.80       71.71       71.63       71.54       71.46       71.38    
        71.29       71.21       71.13       71.05       70.97       70.90       70.82       70.75       70.68       70.61    
        70.55       70.49       70.44       70.38       70.33       70.29       70.25       70.21       70.18       70.15    
        70.12       70.10       70.08       70.06       70.05       70.03       70.02       70.02       70.01       70.00    

 HEAD WILL BE SAVED ON UNIT   51 AT END OF TIME STEP    1, STRESS PERIOD    1

 DRAWDOWN WILL BE SAVED ON UNIT   52 AT END OF TIME STEP    1, STRESS PERIOD    1
1
  VOLUMETRIC BUDGET FOR ENTIRE MODEL AT END OF TIME STEP    1, STRESS PERIOD   1
  ------------------------------------------------------------------------------

     CUMULATIVE VOLUMES      L**3       RATES FOR THIS TIME STEP      L**3/T
     ------------------                 ------------------------

           IN:                                      IN:
           ---                                      ---
             STORAGE =           0.0000               STORAGE =           0.0000
       CONSTANT HEAD =        1996.8939         CONSTANT HEAD =        1996.8939
               WELLS =         375.0000                 WELLS =         375.0000
       RIVER LEAKAGE =        6000.0000         RIVER LEAKAGE =        6000.0000
                  ET =           0.0000                    ET =           0.0000
            RECHARGE =        7600.0000              RECHARGE =        7600.0000

            TOTAL IN =       15971.8945              TOTAL IN =       15971.8945

          OUT:                                     OUT:
          ----                                     ----
             STORAGE =           0.0000               STORAGE =           0.0000
       CONSTANT HEAD =        4572.5620         CONSTANT HEAD =        4572.5620
               WELLS =        6000.0000                 WELLS =        6000.0000
       RIVER LEAKAGE =           0.0000         RIVER LEAKAGE =           0.0000
                  ET =        5399.3315                    ET =        5399.3315
            RECHARGE =           0.0000              RECHARGE =           0.0000

           TOTAL OUT =       15971.8945             TOTAL OUT =       15971.8945

            IN - OUT =           0.0000              IN - OUT =           0.0000

 PERCENT DISCREPANCY =           0.00     PERCENT DISCREPANCY =           0.00






         TIME SUMMARY AT END OF TIME STEP    1 IN STRESS PERIOD    1
                    SECONDS     MINUTES      HOURS       DAYS        YEARS
                    -----------------------------------------------------------
   TIME STEP LENGTH  86400.      1440.0      24.000      1.0000     2.73785E-03
 STRESS PERIOD TIME  86400.      1440.0      24.000      1.0000     2.73785E-03
         TOTAL TIME  86400.      1440.0      24.000      1.0000     2.73785E-03
1

 Run end date and time (yyyy/mm/dd hh:mm:ss): 2026/02/25  7:18:22
 Elapsed run time:  7.263 Seconds

