                                  MODFLOW-2005     
      U.S. GEOLOGICAL SURVEY MODULAR FINITE-DIFFERENCE GROUND-WATER FLOW MODEL
                            VERSION 1.12.00 2/3/2017

 LIST FILE: static_ensemble_S2wel_1211311.list
                         UNIT    2

 OPENING static_ensemble_S2wel_1211311.dis
 FILE TYPE:DIS   UNIT   11   STATUS:OLD    
 FORMAT:FORMATTED              ACCESS:SEQUENTIAL          

 OPENING static_ensemble_S2wel_1211311.bas
 FILE TYPE:BAS6   UNIT   13   STATUS:OLD    
 FORMAT:FORMATTED              ACCESS:SEQUENTIAL          

 OPENING static_ensemble_S2wel_1211311.lpf
 FILE TYPE:LPF   UNIT   15   STATUS:OLD    
 FORMAT:FORMATTED              ACCESS:SEQUENTIAL          

 OPENING static_ensemble_S2wel_1211311.evt
 FILE TYPE:EVT   UNIT   22   STATUS:OLD    
 FORMAT:FORMATTED              ACCESS:SEQUENTIAL          

 OPENING static_ensemble_S2wel_1211311.rch
 FILE TYPE:RCH   UNIT   19   STATUS:OLD    
 FORMAT:FORMATTED              ACCESS:SEQUENTIAL          

 OPENING static_ensemble_S2wel_1211311.riv
 FILE TYPE:RIV   UNIT   18   STATUS:OLD    
 FORMAT:FORMATTED              ACCESS:SEQUENTIAL          

 OPENING static_ensemble_S2wel_1211311.wel
 FILE TYPE:WEL   UNIT   20   STATUS:OLD    
 FORMAT:FORMATTED              ACCESS:SEQUENTIAL          

 OPENING static_ensemble_S2wel_1211311.oc
 FILE TYPE:OC   UNIT   14   STATUS:OLD    
 FORMAT:FORMATTED              ACCESS:SEQUENTIAL          

 OPENING static_ensemble_S2wel_1211311.pcg
 FILE TYPE:PCG   UNIT   27   STATUS:OLD    
 FORMAT:FORMATTED              ACCESS:SEQUENTIAL          

 OPENING static_ensemble_S2wel_1211311.cbc
 FILE TYPE:DATA(BINARY)   UNIT   53   STATUS:REPLACE
 FORMAT:UNFORMATTED            ACCESS:STREAM              

 OPENING static_ensemble_S2wel_1211311.hds
 FILE TYPE:DATA(BINARY)   UNIT   51   STATUS:REPLACE
 FORMAT:UNFORMATTED            ACCESS:STREAM              

 OPENING static_ensemble_S2wel_1211311.ddn
 FILE TYPE:DATA(BINARY)   UNIT   52   STATUS:REPLACE
 FORMAT:UNFORMATTED            ACCESS:STREAM              

 BAS -- BASIC PACKAGE, VERSION 7, 5/2/2005 INPUT READ FROM UNIT   13
 
 MODFLOW was compiled using mixed precision
 Precision of REAL variables:           6
 Precision of DOUBLE PRECISION variables:          15

 DISCRETIZATION INPUT DATA READ FROM UNIT   11
 # DIS package for MODFLOW-2005 generated by Flopy 3.10.0
    3 LAYERS        50 ROWS        50 COLUMNS
    1 STRESS PERIOD(S) IN SIMULATION
 MODEL TIME UNIT IS DAYS
 MODEL LENGTH UNIT IS METERS
  Confining bed flag for each layer:
   0   0   0

                     DELR =   1000.00    

                     DELC =   1000.00    



           TOP ELEVATION OF LAYER 1
 READING ON UNIT   11 WITH FORMAT: (50E15.6)           



             MODEL LAYER BOTTOM EL. FOR LAYER   1
 READING ON UNIT   11 WITH FORMAT: (50E15.6)           



             MODEL LAYER BOTTOM EL. FOR LAYER   2
 READING ON UNIT   11 WITH FORMAT: (50E15.6)           



             MODEL LAYER BOTTOM EL. FOR LAYER   3
 READING ON UNIT   11 WITH FORMAT: (50E15.6)           


 STRESS PERIOD     LENGTH       TIME STEPS     MULTIPLIER FOR DELT    SS FLAG
 ----------------------------------------------------------------------------
        1         1.000000          1                    1.000         SS

 STEADY-STATE SIMULATION



 
 # BAS6 package for MODFLOW-2005 generated by Flopy 3.10.0                       
 THE FREE FORMAT OPTION HAS BEEN SELECTED



                     BOUNDARY ARRAY FOR LAYER   1
 READING ON UNIT   13 WITH FORMAT: (50I10)             



                     BOUNDARY ARRAY FOR LAYER   2
 READING ON UNIT   13 WITH FORMAT: (50I10)             



                     BOUNDARY ARRAY FOR LAYER   3
 READING ON UNIT   13 WITH FORMAT: (50I10)             

 AQUIFER HEAD WILL BE SET TO  -999.99     AT ALL NO-FLOW NODES (IBOUND=0).



                       INITIAL HEAD FOR LAYER   1
 READING ON UNIT   13 WITH FORMAT: (50E15.6)           



                       INITIAL HEAD FOR LAYER   2
 READING ON UNIT   13 WITH FORMAT: (50E15.6)           



                       INITIAL HEAD FOR LAYER   3
 READING ON UNIT   13 WITH FORMAT: (50E15.6)           
 # OC package for MODFLOW-2005 generated by Flopy 3.10.0

 OUTPUT CONTROL IS SPECIFIED ONLY AT TIME STEPS FOR WHICH OUTPUT IS DESIRED
 COMPACT CELL-BY-CELL BUDGET FILES WILL BE WRITTEN
 AUXILIARY DATA WILL BE SAVED IN CELL-BY-CELL BUDGET FILES
 HEAD PRINT FORMAT CODE IS   0    DRAWDOWN PRINT FORMAT CODE IS   0
 HEADS WILL BE SAVED ON UNIT   51    DRAWDOWNS WILL BE SAVED ON UNIT   52

 LPF -- LAYER-PROPERTY FLOW PACKAGE, VERSION 7, 5/2/2005
         INPUT READ FROM UNIT   15
 # LPF package for MODFLOW-2005 generated by Flopy 3.10.0
 CELL-BY-CELL FLOWS WILL BE SAVED ON UNIT   53
 HEAD AT CELLS THAT CONVERT TO DRY= -1.00000E+30
 No named parameters
 STORAGECOEFFICIENT OPTION:
 Read storage coefficient rather than specific storage

   LAYER FLAGS:
 LAYER       LAYTYP        LAYAVG         CHANI        LAYVKA        LAYWET
 ---------------------------------------------------------------------------
    1             1             0     1.000E+00             0             0
    2             1             0     1.000E+00             0             0
    3             1             0     1.000E+00             0             0

   INTERPRETATION OF LAYER FLAGS:
                        INTERBLOCK     HORIZONTAL    DATA IN
         LAYER TYPE   TRANSMISSIVITY   ANISOTROPY   ARRAY VKA   WETTABILITY
 LAYER      (LAYTYP)      (LAYAVG)       (CHANI)      (LAYVKA)      (LAYWET)
 ---------------------------------------------------------------------------
    1   CONVERTIBLE      HARMONIC     1.000E+00    VERTICAL K  NON-WETTABLE
    2   CONVERTIBLE      HARMONIC     1.000E+00    VERTICAL K  NON-WETTABLE
    3   CONVERTIBLE      HARMONIC     1.000E+00    VERTICAL K  NON-WETTABLE

 WETTING CAPABILITY IS NOT ACTIVE IN ANY LAYER



              HYD. COND. ALONG ROWS FOR LAYER   1
 READING ON UNIT   15 WITH FORMAT: (50E15.6)           



                VERTICAL HYD. COND. FOR LAYER   1
 READING ON UNIT   15 WITH FORMAT: (50E15.6)           



              HYD. COND. ALONG ROWS FOR LAYER   2
 READING ON UNIT   15 WITH FORMAT: (50E15.6)           



                VERTICAL HYD. COND. FOR LAYER   2
 READING ON UNIT   15 WITH FORMAT: (50E15.6)           



              HYD. COND. ALONG ROWS FOR LAYER   3
 READING ON UNIT   15 WITH FORMAT: (50E15.6)           



                VERTICAL HYD. COND. FOR LAYER   3
 READING ON UNIT   15 WITH FORMAT: (50E15.6)           

 WEL -- WELL PACKAGE, VERSION 7, 5/2/2005 INPUT READ FROM UNIT   20
 # WEL package for MODFLOW-2005 generated by Flopy 3.10.0
 No named parameters
 MAXIMUM OF      4 ACTIVE WELLS AT ONE TIME


     0 Well parameters

 RIV -- RIVER PACKAGE, VERSION 7, 5/2/2005 INPUT READ FROM UNIT   18
 # RIV package for MODFLOW-2005 generated by Flopy 3.10.0
 No named parameters
 MAXIMUM OF     49 ACTIVE RIVER REACHES AT ONE TIME
 CELL-BY-CELL FLOWS WILL BE SAVED ON UNIT   53


     0 River parameters

 EVT -- EVAPOTRANSPIRATION PACKAGE, VERSION 7, 5/2/2005
         INPUT READ FROM UNIT   22
 # EVT package for MODFLOW-2005 generated by Flopy 3.10.0
 No named parameters
 OPTION 3 -- EVAPOTRANSPIRATION FROM HIGHEST ACTIVE NODE IN EACH VERTICAL COLUMN
 CELL-BY-CELL FLOWS WILL BE SAVED ON UNIT   53


     0 Evapotranspiration parameters

 RCH -- RECHARGE PACKAGE, VERSION 7, 5/2/2005 INPUT READ FROM UNIT   19
 # RCH package for MODFLOW-2005 generated by Flopy 3.10.0
 No named parameters
 OPTION 3 -- RECHARGE TO HIGHEST ACTIVE NODE IN EACH VERTICAL COLUMN
 CELL-BY-CELL FLOWS WILL BE SAVED ON UNIT   53


     0 Recharge parameters

 PCG -- CONJUGATE-GRADIENT SOLUTION PACKAGE, VERSION 7, 5/2/2005
 # PCG package for MODFLOW-2005 generated by Flopy 3.10.0
 MAXIMUM OF   5000 CALLS OF SOLUTION ROUTINE
 MAXIMUM OF    500 INTERNAL ITERATIONS PER CALL TO SOLUTION ROUTINE
 MATRIX PRECONDITIONING TYPE :    1



                                    SOLUTION BY THE CONJUGATE-GRADIENT METHOD
                                   -------------------------------------------
                    MAXIMUM NUMBER OF CALLS TO PCG ROUTINE =     5000
                        MAXIMUM ITERATIONS PER CALL TO PCG =      500
                               MATRIX PRECONDITIONING TYPE =        1
        RELAXATION FACTOR (ONLY USED WITH PRECOND. TYPE 1) =    0.97000E+00
 PARAMETER OF POLYNOMIAL PRECOND. = 2 (2) OR IS CALCULATED :        0
                         HEAD CHANGE CRITERION FOR CLOSURE =    0.10000E-04
                     RESIDUAL CHANGE CRITERION FOR CLOSURE =    0.10000E-04
            PCG HEAD AND RESIDUAL CHANGE PRINTOUT INTERVAL =      999
     PRINTING FROM SOLVER IS LIMITED(1) OR SUPPRESSED (>1) =        3
                            STEADY-STATE DAMPING PARAMETER =    0.10000E-01
                               TRANSIENT DAMPING PARAMETER =    0.10000E-01
1
                            STRESS PERIOD NO.    1, LENGTH =   1.000000    
                            -----------------------------------------------

                              NUMBER OF TIME STEPS =     1

                               MULTIPLIER FOR DELT =     1.000

                            INITIAL TIME STEP SIZE =   1.000000    

 WELL NO.  LAYER   ROW   COL   STRESS RATE         
 --------------------------------------------------
      1      3     22     39      -1500.    
      2      1     13     15      -4500.    
      3      1     25     26       375.0    
      4      3     30     39      -1500.    

      4 WELLS

 REACH NO.  LAYER   ROW   COL     STAGE      CONDUCTANCE     BOTTOM EL.         
 -------------------------------------------------------------------------------
      1      1     25      2       100.5           50.00           98.00    
      2      1     25      3       99.50           50.00           97.00    
      3      1     25      4       98.50           50.00           96.00    
      4      1     25      5       97.50           50.00           95.00    
      5      1     25      6       96.50           50.00           94.00    
      6      1     25      7       95.50           50.00           93.00    
      7      1     25      8       94.50           50.00           92.00    
      8      1     25      9       93.50           50.00           91.00    
      9      1     25     10       92.50           50.00           90.00    
     10      1     25     11       91.50           50.00           89.00    
     11      1     25     12       90.50           50.00           88.00    
     12      1     25     13       89.50           50.00           87.00    
     13      1     25     14       88.50           50.00           86.00    
     14      1     25     15       87.50           50.00           85.00    
     15      1     25     16       86.50           50.00           84.00    
     16      1     25     17       85.50           50.00           83.00    
     17      1     25     18       84.50           50.00           82.00    
     18      1     25     19       83.50           50.00           81.00    
     19      1     25     20       82.50           50.00           80.00    
     20      1     25     21       81.50           50.00           79.00    
     21      1     25     22       80.50           50.00           78.00    
     22      1     25     23       79.50           50.00           77.00    
     23      1     25     24       78.50           50.00           76.00    
     24      1     25     25       77.50           50.00           75.00    
     25      1     25     26       77.40           50.00           74.90    
     26      1     25     27       77.30           50.00           74.80    
     27      1     25     28       77.20           50.00           74.70    
     28      1     25     29       77.10           50.00           74.60    
     29      1     25     30       77.00           50.00           74.50    
     30      1     25     31       76.90           50.00           74.40    
     31      1     25     32       76.80           50.00           74.30    
     32      1     25     33       76.70           50.00           74.20    
     33      1     25     34       76.60           50.00           74.10    
     34      1     25     35       76.50           50.00           74.00    
     35      1     25     36       76.40           50.00           73.90    
     36      1     25     37       76.30           50.00           73.80    
     37      1     25     38       76.20           50.00           73.70    
     38      1     25     39       76.10           50.00           73.60    
     39      1     25     40       76.00           50.00           73.50    
     40      1     25     41       75.90           50.00           73.40    
     41      1     25     42       75.80           50.00           73.30    
     42      1     25     43       75.70           50.00           73.20    
     43      1     25     44       75.60           50.00           73.10    
     44      1     25     45       75.50           50.00           73.00    
     45      1     25     46       75.40           50.00           72.90    
     46      1     25     47       75.30           50.00           72.80    
     47      1     25     48       75.20           50.00           72.70    
     48      1     25     49       75.10           50.00           72.60    
     49      1     25     50       75.00           50.00           72.50    

     49 RIVER REACHES



                         ET SURFACE
 READING ON UNIT   22 WITH FORMAT: (50E15.6)           



            EVAPOTRANSPIRATION RATE
 READING ON UNIT   22 WITH FORMAT: (50E15.6)           

         EXTINCTION DEPTH =   10.0000    



                           RECHARGE
 READING ON UNIT   19 WITH FORMAT: (50E15.6)           
 
 SOLVING FOR HEAD 

 OUTPUT CONTROL FOR STRESS PERIOD    1   TIME STEP    1
    SAVE HEAD FOR ALL LAYERS
    SAVE DRAWDOWN FOR ALL LAYERS
    SAVE BUDGET
    PRINT HEAD FOR ALL LAYERS
    PRINT BUDGET
 UBDSV2 SAVING "   CONSTANT HEAD" ON UNIT  53 AT TIME STEP  1, STRESS PERIOD   1
 UBDSV1 SAVING "FLOW RIGHT FACE " ON UNIT  53 AT TIME STEP  1, STRESS PERIOD   1
 UBDSV1 SAVING "FLOW FRONT FACE " ON UNIT  53 AT TIME STEP  1, STRESS PERIOD   1
 UBDSV1 SAVING "FLOW LOWER FACE " ON UNIT  53 AT TIME STEP  1, STRESS PERIOD   1
 UBDSV4 SAVING "   RIVER LEAKAGE" ON UNIT  53 AT TIME STEP  1, STRESS PERIOD   1
 UBDSV3 SAVING "              ET" ON UNIT  53 AT TIME STEP  1, STRESS PERIOD   1
 UBDSV3 SAVING "        RECHARGE" ON UNIT  53 AT TIME STEP  1, STRESS PERIOD   1
1
              HEAD IN LAYER   1 AT END OF TIME STEP   1 IN STRESS PERIOD    1
  ---------------------------------------------------------------------------

            1           2           3           4           5           6           7           8           9          10
           11          12          13          14          15          16          17          18          19          20
           21          22          23          24          25          26          27          28          29          30
           31          32          33          34          35          36          37          38          39          40
           41          42          43          44          45          46          47          48          49          50
 ........................................................................................................................
   1  -1000.0     -1000.0     -1000.0     -1000.0     -1000.0     -1000.0     -1000.0     -1000.0     -1000.0     -1000.0    
      -1000.0     -1000.0     -1000.0     -1000.0     -1000.0     -1000.0     -1000.0     -1000.0     -1000.0     -1000.0    
      -1000.0     -1000.0     -1000.0     -1000.0     -1000.0     -1000.0     -1000.0     -1000.0     -1000.0     -1000.0    
      -1000.0     -1000.0     -1000.0     -1000.0     -1000.0     -1000.0     -1000.0     -1000.0     -1000.0     -1000.0    
      -1000.0     -1000.0     -1000.0     -1000.0     -1000.0     -1000.0     -1000.0     -1000.0     -1000.0       70.00    
   2  -1000.0     -1000.0     -1000.0     -1000.0     -1000.0       74.99       74.87       74.67       74.45       74.20    
        74.03       73.83       73.60       73.37       73.13       72.89       72.67       72.47       72.30       72.14    
        71.99       71.86       71.74       71.63       71.52       71.42       71.32       71.22       71.13       71.04    
        70.95       70.86       70.78       70.70       70.63       70.56       70.49       70.43       70.37       70.32    
        70.27       70.23       70.19       70.15       70.12       70.09       70.07       70.04       70.02       70.00    
   3  -1000.0     -1000.0     -1000.0     -1000.0       75.18       75.05       74.88       74.67       74.42       74.23    
        74.03       73.82       73.59       73.35       73.11       72.87       72.65       72.45       72.28       72.12    
        71.98       71.85       71.73       71.62       71.52       71.41       71.32       71.22       71.13       71.03    
        70.95       70.86       70.78       70.70       70.62       70.55       70.49       70.42       70.37       70.31    
        70.27       70.22       70.19       70.15       70.12       70.09       70.07       70.04       70.02       70.00    
   4  -1000.0     -1000.0     -1000.0       75.38       75.25       75.08       74.88       74.64       74.45       74.24    
        74.02       73.79       73.55       73.31       73.06       72.81       72.60       72.41       72.24       72.09    
        71.96       71.83       71.72       71.61       71.51       71.41       71.31       71.21       71.12       71.03    
        70.94       70.85       70.77       70.69       70.62       70.54       70.48       70.41       70.36       70.31    
        70.26       70.22       70.18       70.14       70.11       70.09       70.06       70.04       70.02       70.00    
   5  -1000.0     -1000.0       75.57       75.45       75.29       75.10       74.87       74.68       74.47       74.24    
        74.00       73.75       73.49       73.23       72.98       72.74       72.52       72.34       72.18       72.04    
        71.92       71.81       71.70       71.60       71.50       71.40       71.30       71.21       71.11       71.02    
        70.93       70.84       70.76       70.68       70.60       70.53       70.46       70.40       70.34       70.29    
        70.24       70.20       70.17       70.13       70.10       70.08       70.06       70.04       70.02       70.00    
   6  -1000.0       75.71       75.62       75.49       75.32       75.10       74.92       74.71       74.48       74.23    
        73.96       73.68       73.40       73.13       72.87       72.62       72.42       72.25       72.11       71.98    
        71.87       71.77       71.67       71.58       71.48       71.39       71.29       71.20       71.10       71.01    
        70.92       70.83       70.75       70.66       70.59       70.51       70.44       70.38       70.32       70.27    
        70.22       70.18       70.15       70.12       70.09       70.07       70.05       70.03       70.02       70.00    
   7  -1000.0       75.74       75.66       75.52       75.34       75.16       74.96       74.73       74.48       74.20    
        73.90       73.59       73.28       72.98       72.71       72.47       72.28       72.13       72.01       71.91    
        71.82       71.73       71.64       71.56       71.47       71.37       71.28       71.19       71.09       71.00    
        70.91       70.82       70.73       70.64       70.56       70.49       70.42       70.35       70.30       70.25    
        70.20       70.16       70.13       70.10       70.07       70.05       70.04       70.02       70.01       70.00    
   8  -1000.0       75.77       75.70       75.55       75.40       75.22       75.01       74.76       74.48       74.17    
        73.83       73.48       73.12       72.78       72.49       72.26       72.09       71.98       71.90       71.83    
        71.76       71.69       71.62       71.54       71.45       71.36       71.27       71.18       71.08       70.98    
        70.89       70.80       70.71       70.62       70.54       70.46       70.39       70.32       70.27       70.21    
        70.17       70.13       70.10       70.07       70.05       70.04       70.03       70.02       70.01       70.00    
   9  -1000.0       75.82       75.74       75.63       75.47       75.28       75.06       74.79       74.48       74.13    
        73.74       73.33       72.91       72.51       72.19       71.97       71.86       71.80       71.77       71.74    
        71.70       71.65       71.59       71.52       71.44       71.36       71.26       71.17       71.07       70.97    
        70.87       70.77       70.68       70.59       70.50       70.42       70.35       70.28       70.23       70.18    
        70.13       70.10       70.07       70.05       70.03       70.02       70.01       70.00       70.00       70.00    
  10  -1000.0       75.89       75.82       75.71       75.56       75.36       75.12       74.83       74.49       74.10    
        73.66       73.16       72.64       72.13       71.74       71.58       71.56       71.60       71.64       71.66    
        71.66       71.63       71.58       71.52       71.44       71.36       71.26       71.16       71.06       70.96    
        70.85       70.75       70.65       70.56       70.47       70.38       70.31       70.24       70.18       70.13    
        70.09       70.05       70.03       70.01       70.00       69.99       69.99       69.99       70.00       70.00    
  11  -1000.0       75.97       75.91       75.80       75.65       75.45       75.20       74.90       74.53       74.10    
        73.59       72.99       72.32       71.60       71.04       71.04       71.22       71.40       71.53       71.60    
        71.63       71.62       71.59       71.53       71.45       71.36       71.26       71.16       71.05       70.94    
        70.83       70.72       70.62       70.52       70.42       70.33       70.25       70.18       70.12       70.07    
        70.03       70.00       69.98       69.97       69.96       69.96       69.97       69.98       69.99       70.00    
  12  -1000.0       76.08       76.02       75.92       75.77       75.57       75.31       74.99       74.61       74.14    
        73.58       72.88       71.99       70.89       69.74       70.30       70.87       71.25       71.47       71.59    
        71.65       71.65       71.61       71.55       71.47       71.38       71.27       71.16       71.04       70.92    
        70.81       70.69       70.58       70.47       70.37       70.28       70.19       70.12       70.06       70.01    
        69.97       69.94       69.93       69.92       69.92       69.93       69.94       69.96       69.98       70.00    
  13  -1000.0       76.21       76.16       76.06       75.91       75.71       75.45       75.13       74.73       74.26    
        73.66       72.90       71.85       70.17       66.56       69.56       70.70       71.24       71.52       71.66    
        71.71       71.71       71.67       71.60       71.51       71.40       71.28       71.16       71.04       70.91    
        70.78       70.66       70.53       70.42       70.31       70.21       70.12       70.04       69.98       69.93    
        69.90       69.87       69.86       69.87       69.87       69.89       69.91       69.94       69.97       70.00    
  14  -1000.0       76.37       76.32       76.22       76.08       75.88       75.62       75.30       74.92       74.45    
        73.88       73.18       72.30       71.19       70.03       70.58       71.13       71.49       71.70       71.80    
        71.83       71.81       71.75       71.66       71.56       71.44       71.31       71.17       71.03       70.89    
        70.75       70.62       70.48       70.36       70.24       70.13       70.03       69.95       69.89       69.84    
        69.81       69.79       69.79       69.80       69.82       69.85       69.88       69.92       69.96       70.00    
  15  -1000.0       76.55       76.51       76.41       76.27       76.07       75.83       75.52       75.16       74.72    
        74.21       73.60       72.92       72.19       71.62       71.59       71.74       71.89       71.98       72.02    
        72.00       71.95       71.86       71.75       71.62       71.48       71.33       71.18       71.03       70.87    
        70.72       70.57       70.43       70.29       70.16       70.04       69.93       69.85       69.78       69.73    
        69.71       69.70       69.71       69.73       69.76       69.79       69.84       69.89       69.94       70.00    
  16  -1000.0       76.76       76.71       76.62       76.48       76.29       76.06       75.77       75.43       75.04    
        74.58       74.07       73.53       73.01       72.60       72.40       72.35       72.34       72.33       72.29    
        72.21       72.11       71.99       71.85       71.69       71.53       71.36       71.19       71.02       70.86    
        70.69       70.53       70.37       70.21       70.07       69.93       69.82       69.72       69.65       69.60    
        69.58       69.59       69.61       69.64       69.68       69.74       69.80       69.86       69.93       70.00    
  17  -1000.0       76.98       76.93       76.85       76.71       76.54       76.32       76.05       75.74       75.38    
        74.98       74.54       74.10       73.68       73.32       73.07       72.91       72.80       72.70       72.59    
        72.46       72.30       72.14       71.96       71.77       71.59       71.40       71.21       71.02       70.83    
        70.65       70.47       70.30       70.13       69.97       69.81       69.68       69.57       69.49       69.45    
        69.44       69.46       69.49       69.54       69.60       69.67       69.75       69.83       69.91       70.00    
  18  -1000.0       77.21       77.17       77.09       76.97       76.80       76.59       76.35       76.06       75.73    
        75.37       75.00       74.61       74.24       73.91       73.63       73.41       73.24       73.08       72.91    
        72.71       72.51       72.29       72.08       71.86       71.64       71.43       71.22       71.01       70.81    
        70.61       70.41       70.22       70.03       69.85       69.68       69.51       69.38       69.29       69.26    
        69.27       69.31       69.37       69.44       69.51       69.60       69.69       69.79       69.89       70.00    
  19  -1000.0       77.47       77.43       77.35       77.23       77.08       76.88       76.65       76.39       76.09    
        75.76       75.42       75.07       74.73       74.41       74.12       73.88       73.67       73.47       73.24    
        72.99       72.72       72.45       72.19       71.94       71.69       71.45       71.22       71.00       70.78    
        70.56       70.35       70.14       69.94       69.73       69.52       69.32       69.15       69.04       69.03    
        69.07       69.15       69.23       69.32       69.42       69.52       69.63       69.74       69.87       70.00    
  20  -1000.0       77.73       77.69       77.62       77.51       77.36       77.18       76.97       76.72       76.44    
        76.14       75.82       75.50       75.17       74.86       74.56       74.30       74.08       73.88       73.61    
        73.27       72.93       72.61       72.30       72.01       71.74       71.47       71.22       70.98       70.74    
        70.52       70.29       70.06       69.84       69.60       69.36       69.10       68.86       68.69       68.73    
        68.85       68.97       69.09       69.21       69.32       69.43       69.55       69.69       69.84       70.00    
  21  -1000.0       78.01       77.97       77.90       77.80       77.66       77.49       77.28       77.05       76.79    
        76.51       76.21       75.89       75.58       75.26       74.95       74.68       74.47       74.35       74.04    
        73.54       73.12       72.74       72.40       72.07       71.77       71.48       71.21       70.95       70.70    
        70.46       70.22       69.99       69.74       69.48       69.20       68.87       68.49       68.12       68.36    
        68.61       68.80       68.95       69.09       69.21       69.34       69.47       69.62       69.79       70.00    
  22  -1000.0       78.29       78.26       78.19       78.09       77.96       77.80       77.60       77.38       77.13    
        76.86       76.57       76.26       75.95       75.62       75.30       75.01       74.77       74.61       74.26    
        73.72       73.26       72.85       72.47       72.12       71.80       71.49       71.20       70.92       70.66    
        70.41       70.16       69.91       69.66       69.39       69.08       68.70       68.12       66.97       67.98    
        68.42       68.67       68.84       68.98       69.11       69.24       69.39       69.55       69.75       70.00    
  23  -1000.0       78.58       78.55       78.49       78.39       78.26       78.11       77.92       77.71       77.47    
        77.20       76.92       76.61       76.29       75.96       75.61       75.28       74.97       74.66       74.28    
        73.81       73.36       72.94       72.55       72.19       71.87       71.53       71.21       70.92       70.64    
        70.37       70.12       69.87       69.61       69.34       69.05       68.72       68.33       67.95       68.18    
        68.43       68.62       68.77       68.91       69.04       69.18       69.33       69.51       69.72       70.00    
  24  -1000.0       78.88       78.85       78.79       78.69       78.57       78.42       78.24       78.03       77.80    
        77.54       77.26       76.95       76.63       76.28       75.91       75.54       75.17       74.78       74.37    
        73.92       73.47       73.04       72.65       72.32       72.03       71.64       71.28       70.95       70.66    
        70.39       70.12       69.87       69.61       69.35       69.08       68.81       68.55       68.37       68.40    
        68.51       68.64       68.77       68.89       69.02       69.16       69.32       69.51       69.73       70.00    
  25  -1000.0       79.18       79.15       79.09       79.00       78.88       78.74       78.56       78.36       78.13    
        77.87       77.59       77.29       76.95       76.59       76.20       75.79       75.38       74.96       74.52    
        74.07       73.63       73.20       72.82       72.51       72.42       71.82       71.40       71.06       70.76    
        70.48       70.21       69.95       69.70       69.44       69.19       68.95       68.75       68.62       68.59    
        68.65       68.74       68.84       68.96       69.09       69.23       69.39       69.58       69.80       70.00    
  26  -1000.0       79.17       79.14       79.08       78.99       78.88       78.73       78.56       78.36       78.14    
        77.88       77.60       77.29       76.95       76.58       76.17       75.74       75.31       74.87       74.42    
        73.96       73.51       73.08       72.68       72.32       72.01       71.60       71.23       70.89       70.59    
        70.30       70.03       69.77       69.51       69.26       69.01       68.78       68.59       68.47       68.43    
        68.47       68.54       68.64       68.76       68.88       69.03       69.20       69.41       69.66       70.00    
  27  -1000.0       79.16       79.13       79.08       78.99       78.88       78.74       78.57       78.37       78.15    
        77.89       77.61       77.30       76.96       76.59       76.18       75.75       75.31       74.86       74.41    
        73.95       73.50       73.06       72.65       72.26       71.89       71.52       71.17       70.84       70.54    
        70.26       69.98       69.72       69.46       69.20       68.94       68.69       68.48       68.35       68.32    
        68.37       68.46       68.56       68.68       68.81       68.96       69.13       69.35       69.63       70.00    
  28  -1000.0       79.16       79.13       79.07       78.99       78.88       78.74       78.57       78.38       78.16    
        77.91       77.63       77.32       76.98       76.61       76.20       75.78       75.35       74.91       74.46    
        74.02       73.57       73.14       72.71       72.31       71.92       71.56       71.21       70.89       70.59    
        70.31       70.03       69.76       69.50       69.22       68.94       68.66       68.38       68.19       68.22    
        68.32       68.44       68.57       68.69       68.82       68.97       69.15       69.36       69.64       70.00    
  29  -1000.0       79.16       79.13       79.07       78.99       78.88       78.75       78.58       78.39       78.17    
        77.92       77.65       77.34       77.00       76.64       76.23       75.82       75.41       74.98       74.56    
        74.13       73.70       73.28       72.87       72.46       72.04       71.67       71.33       71.01       70.72    
        70.43       70.15       69.88       69.61       69.32       69.01       68.66       68.26       67.86       68.08    
        68.31       68.49       68.64       68.78       68.91       69.05       69.22       69.42       69.67       70.00    
  30  -1000.0       79.16       79.13       79.08       79.00       78.89       78.75       78.59       78.40       78.18    
        77.94       77.66       77.36       77.03       76.67       76.27       75.87       75.47       75.06       74.65    
        74.23       73.82       73.42       73.01       72.61       72.20       71.83       71.49       71.18       70.89    
        70.60       70.32       70.05       69.77       69.47       69.14       68.73       68.13       66.96       67.95    
        68.38       68.61       68.77       68.91       69.03       69.17       69.32       69.50       69.72       70.00    
  31  -1000.0       79.16       79.13       79.08       79.00       78.89       78.76       78.60       78.41       78.20    
        77.96       77.69       77.39       77.06       76.70       76.32       75.93       75.53       75.13       74.73    
        74.34       73.94       73.55       73.15       72.76       72.37       72.01       71.68       71.37       71.08    
        70.80       70.52       70.24       69.96       69.67       69.36       69.00       68.59       68.20       68.41    
        68.63       68.81       68.95       69.07       69.18       69.30       69.44       69.59       69.78       70.00    
  32  -1000.0       79.17       79.14       79.09       79.01       78.90       78.77       78.61       78.43       78.21    
        77.98       77.71       77.41       77.09       76.74       76.36       75.98       75.59       75.21       74.82    
        74.43       74.05       73.67       73.29       72.92       72.55       72.20       71.88       71.57       71.28    
        70.99       70.72       70.44       70.17       69.89       69.61       69.32       69.04       68.84       68.85    
        68.94       69.04       69.14       69.23       69.33       69.44       69.55       69.68       69.83       70.00    
  33  -1000.0       79.17       79.15       79.09       79.02       78.91       78.78       78.62       78.44       78.23    
        78.00       77.73       77.44       77.13       76.78       76.41       76.03       75.66       75.28       74.90    
        74.53       74.16       73.79       73.42       73.06       72.72       72.38       72.06       71.76       71.47    
        71.18       70.91       70.64       70.38       70.12       69.87       69.63       69.41       69.26       69.21    
        69.23       69.27       69.33       69.40       69.47       69.56       69.65       69.76       69.87       70.00    
  34  -1000.0       79.18       79.15       79.10       79.02       78.92       78.79       78.64       78.46       78.25    
        78.02       77.76       77.47       77.16       76.82       76.45       76.09       75.72       75.35       74.98    
        74.62       74.26       73.90       73.55       73.20       72.86       72.54       72.23       71.93       71.64    
        71.36       71.09       70.83       70.58       70.34       70.11       69.90       69.72       69.58       69.51    
        69.48       69.49       69.51       69.55       69.60       69.67       69.74       69.82       69.91       70.00    
  35  -1000.0       79.19       79.16       79.11       79.03       78.93       78.80       78.65       78.47       78.27    
        78.04       77.78       77.50       77.19       76.86       76.50       76.14       75.78       75.42       75.06    
        74.70       74.35       74.00       73.66       73.33       73.00       72.68       72.38       72.09       71.80    
        71.53       71.27       71.02       70.78       70.55       70.33       70.14       69.97       69.85       69.76    
        69.71       69.68       69.68       69.70       69.73       69.77       69.81       69.87       69.93       70.00    
  36  -1000.0       79.19       79.17       79.12       79.04       78.94       78.81       78.66       78.49       78.28    
        78.06       77.81       77.53       77.22       76.90       76.54       76.19       75.83       75.48       75.13    
        74.78       74.44       74.10       73.77       73.44       73.13       72.82       72.52       72.23       71.95    
        71.69       71.43       71.19       70.95       70.74       70.53       70.35       70.19       70.07       69.97    
        69.90       69.86       69.84       69.83       69.84       69.85       69.88       69.92       69.96       70.00    
  37  -1000.0       79.20       79.18       79.13       79.05       78.95       78.82       78.67       78.50       78.30    
        78.08       77.83       77.55       77.26       76.93       76.58       76.23       75.89       75.54       75.20    
        74.86       74.52       74.19       73.87       73.55       73.24       72.94       72.65       72.36       72.09    
        71.83       71.58       71.34       71.12       70.91       70.71       70.54       70.38       70.25       70.15    
        70.07       70.01       69.97       69.95       69.94       69.94       69.94       69.96       69.98       70.00    
  38  -1000.0       79.21       79.18       79.13       79.06       78.96       78.83       78.69       78.51       78.32    
        78.09       77.85       77.58       77.28       76.96       76.62       76.28       75.94       75.60       75.26    
        74.93       74.60       74.28       73.96       73.65       73.34       73.05       72.76       72.49       72.22    
        71.96       71.72       71.49       71.27       71.06       70.87       70.70       70.55       70.42       70.31    
        70.22       70.15       70.09       70.05       70.02       70.01       70.00       69.99       70.00       70.00    
  39  -1000.0       79.22       79.19       79.14       79.06       78.96       78.84       78.69       78.52       78.33    
        78.11       77.87       77.60       77.31       77.00       76.66       76.32       75.98       75.65       75.32    
        74.99       74.67       74.35       74.04       73.73       73.44       73.15       72.87       72.60       72.33    
        72.08       71.84       71.62       71.40       71.20       71.01       70.84       70.69       70.56       70.44    
        70.34       70.26       70.20       70.14       70.10       70.07       70.05       70.03       70.01       70.00    
  40  -1000.0       79.22       79.20       79.15       79.07       78.97       78.85       78.70       78.53       78.34    
        78.12       77.88       77.62       77.33       77.02       76.69       76.35       76.02       75.69       75.37    
        75.05       74.73       74.42       74.11       73.81       73.52       73.24       72.96       72.69       72.44    
        72.19       71.96       71.73       71.52       71.32       71.14       70.97       70.82       70.68       70.56    
        70.45       70.36       70.29       70.22       70.17       70.13       70.09       70.06       70.03       70.00    
  41  -1000.0       79.23       79.21       79.15       79.07       78.97       78.85       78.71       78.54       78.35    
        78.14       77.90       77.64       77.36       77.05       76.72       76.39       76.06       75.74       75.42    
        75.10       74.79       74.48       74.18       73.88       73.60       73.32       73.04       72.78       72.53    
        72.29       72.05       71.83       71.62       71.43       71.25       71.08       70.92       70.78       70.66    
        70.55       70.45       70.37       70.29       70.23       70.17       70.12       70.08       70.04       70.00    
  42  -1000.0       79.26       79.21       79.15       79.08       78.97       78.85       78.71       78.54       78.35    
        78.14       77.91       77.65       77.37       77.07       76.74       76.42       76.09       75.77       75.46    
        75.14       74.84       74.53       74.24       73.95       73.66       73.39       73.12       72.86       72.61    
        72.37       72.14       71.92       71.72       71.52       71.34       71.17       71.02       70.87       70.75    
        70.63       70.53       70.44       70.35       70.28       70.22       70.16       70.10       70.05       70.00    
  43  -1000.0       79.29       79.24       79.15       79.07       78.97       78.85       78.70       78.54       78.36    
        78.15       77.92       77.66       77.39       77.09       76.76       76.44       76.12       75.81       75.49    
        75.18       74.88       74.58       74.29       74.00       73.72       73.45       73.18       72.93       72.68    
        72.44       72.22       72.00       71.79       71.60       71.42       71.25       71.09       70.95       70.82    
        70.70       70.59       70.49       70.40       70.32       70.25       70.18       70.12       70.06       70.00    
  44  -1000.0       79.31       79.26       79.18       79.06       78.96       78.84       78.70       78.54       78.35    
        78.15       77.92       77.67       77.40       77.10       76.78       76.46       76.15       75.83       75.52    
        75.22       74.92       74.62       74.33       74.05       73.77       73.50       73.24       72.98       72.74    
        72.50       72.28       72.07       71.86       71.67       71.49       71.32       71.16       71.01       70.88    
        70.76       70.64       70.54       70.45       70.36       70.28       70.21       70.13       70.07       70.00    
  45  -1000.0       79.32       79.28       79.20       79.09       78.95       78.82       78.68       78.53       78.35    
        78.15       77.92       77.68       77.41       77.11       76.80       76.48       76.17       75.86       75.55    
        75.25       74.95       74.65       74.37       74.09       73.81       73.54       73.28       73.03       72.79    
        72.56       72.33       72.12       71.92       71.72       71.54       71.37       71.21       71.07       70.93    
        70.80       70.69       70.58       70.48       70.39       70.30       70.22       70.15       70.07       70.00    
  46  -1000.0     -1000.0       79.26       79.19       79.09       78.96       78.80       78.67       78.51       78.34    
        78.14       77.92       77.68       77.41       77.12       76.81       76.49       76.18       75.87       75.57    
        75.27       74.97       74.68       74.40       74.12       73.84       73.58       73.32       73.07       72.83    
        72.60       72.37       72.16       71.96       71.77       71.59       71.42       71.26       71.11       70.97    
        70.84       70.72       70.61       70.51       70.41       70.32       70.24       70.16       70.08       70.00    
  47  -1000.0     -1000.0     -1000.0       79.17       79.08       78.96       78.82       78.64       78.49       78.32    
        78.13       77.92       77.68       77.42       77.13       76.82       76.50       76.19       75.89       75.58    
        75.29       74.99       74.70       74.42       74.14       73.87       73.60       73.35       73.10       72.86    
        72.63       72.40       72.19       71.99       71.80       71.62       71.45       71.29       71.14       71.00    
        70.87       70.75       70.63       70.53       70.43       70.34       70.25       70.16       70.08       70.00    
  48  -1000.0     -1000.0     -1000.0     -1000.0       79.05       78.95       78.82       78.66       78.46       78.30    
        78.12       77.91       77.68       77.42       77.13       76.82       76.51       76.20       75.90       75.60    
        75.30       75.00       74.71       74.43       74.15       73.88       73.62       73.36       73.12       72.88    
        72.65       72.43       72.21       72.01       71.82       71.64       71.47       71.31       71.16       71.02    
        70.89       70.76       70.65       70.54       70.44       70.35       70.26       70.17       70.08       70.00    
  49  -1000.0     -1000.0     -1000.0     -1000.0     -1000.0       78.92       78.82       78.67       78.48       78.27    
        78.11       77.91       77.68       77.42       77.13       76.82       76.51       76.21       75.90       75.60    
        75.30       75.01       74.72       74.44       74.16       73.89       73.63       73.37       73.13       72.89    
        72.66       72.44       72.22       72.02       71.83       71.65       71.48       71.32       71.17       71.03    
        70.89       70.77       70.66       70.55       70.45       70.35       70.26       70.17       70.08       70.00    
  50  -1000.0     -1000.0     -1000.0     -1000.0     -1000.0     -1000.0     -1000.0     -1000.0     -1000.0     -1000.0    
      -1000.0     -1000.0     -1000.0     -1000.0     -1000.0     -1000.0     -1000.0     -1000.0     -1000.0     -1000.0    
      -1000.0     -1000.0     -1000.0     -1000.0     -1000.0     -1000.0     -1000.0     -1000.0     -1000.0     -1000.0    
      -1000.0     -1000.0     -1000.0     -1000.0     -1000.0     -1000.0     -1000.0     -1000.0     -1000.0     -1000.0    
      -1000.0     -1000.0     -1000.0     -1000.0     -1000.0     -1000.0     -1000.0     -1000.0     -1000.0       70.00    
1
              HEAD IN LAYER   2 AT END OF TIME STEP   1 IN STRESS PERIOD    1
  ---------------------------------------------------------------------------

            1           2           3           4           5           6           7           8           9          10
           11          12          13          14          15          16          17          18          19          20
           21          22          23          24          25          26          27          28          29          30
           31          32          33          34          35          36          37          38          39          40
           41          42          43          44          45          46          47          48          49          50
 ........................................................................................................................
   1  -1000.0     -1000.0     -1000.0     -1000.0     -1000.0     -1000.0     -1000.0     -1000.0     -1000.0     -1000.0    
      -1000.0     -1000.0     -1000.0     -1000.0     -1000.0     -1000.0     -1000.0     -1000.0     -1000.0     -1000.0    
      -1000.0     -1000.0     -1000.0     -1000.0     -1000.0     -1000.0     -1000.0     -1000.0     -1000.0     -1000.0    
      -1000.0     -1000.0     -1000.0     -1000.0     -1000.0     -1000.0     -1000.0     -1000.0     -1000.0     -1000.0    
      -1000.0     -1000.0     -1000.0     -1000.0     -1000.0     -1000.0     -1000.0     -1000.0     -1000.0       70.00    
   2  -1000.0     -1000.0     -1000.0     -1000.0     -1000.0     -1000.0     -1000.0       74.67       74.45       74.20    
        74.03       73.83       73.60       73.37       73.13       72.89       72.67       72.47       72.30       72.14    
        71.99       71.86       71.74       71.63       71.52       71.42       71.32       71.22       71.13       71.04    
        70.95       70.86       70.78       70.70       70.63       70.56       70.49       70.43       70.37       70.32    
        70.27       70.23       70.19       70.15       70.12       70.09       70.07       70.04       70.02       70.00    
   3  -1000.0     -1000.0     -1000.0     -1000.0     -1000.0     -1000.0       74.88       74.67       74.42       74.23    
        74.03       73.82       73.59       73.35       73.11       72.87       72.65       72.45       72.28       72.12    
        71.98       71.85       71.73       71.62       71.52       71.41       71.32       71.22       71.13       71.03    
        70.95       70.86       70.78       70.70       70.62       70.55       70.49       70.42       70.37       70.31    
        70.27       70.22       70.19       70.15       70.12       70.09       70.07       70.04       70.02       70.00    
   4  -1000.0     -1000.0     -1000.0     -1000.0     -1000.0       75.08       74.88       74.64       74.45       74.24    
        74.02       73.79       73.55       73.31       73.06       72.81       72.60       72.41       72.24       72.09    
        71.96       71.83       71.72       71.61       71.51       71.41       71.31       71.21       71.12       71.03    
        70.94       70.85       70.77       70.69       70.62       70.54       70.48       70.41       70.36       70.31    
        70.26       70.22       70.18       70.14       70.11       70.09       70.06       70.04       70.02       70.00    
   5  -1000.0     -1000.0     -1000.0     -1000.0       75.29       75.10       74.87       74.68       74.47       74.24    
        74.00       73.75       73.49       73.23       72.98       72.74       72.52       72.34       72.18       72.04    
        71.92       71.81       71.70       71.60       71.50       71.40       71.30       71.21       71.11       71.02    
        70.93       70.84       70.76       70.68       70.60       70.53       70.46       70.40       70.34       70.29    
        70.24       70.20       70.17       70.13       70.10       70.08       70.06       70.04       70.02       70.00    
   6  -1000.0     -1000.0     -1000.0       75.49       75.32       75.10       74.92       74.71       74.48       74.23    
        73.96       73.68       73.40       73.13       72.87       72.62       72.42       72.25       72.11       71.98    
        71.87       71.77       71.67       71.58       71.48       71.39       71.29       71.20       71.10       71.01    
        70.92       70.83       70.75       70.66       70.59       70.51       70.44       70.38       70.32       70.27    
        70.22       70.18       70.15       70.12       70.09       70.07       70.05       70.03       70.02       70.00    
   7  -1000.0     -1000.0       75.66       75.52       75.34       75.16       74.96       74.73       74.48       74.20    
        73.90       73.59       73.28       72.98       72.71       72.47       72.28       72.13       72.01       71.91    
        71.82       71.73       71.64       71.56       71.47       71.37       71.28       71.19       71.09       71.00    
        70.91       70.82       70.73       70.64       70.56       70.49       70.42       70.35       70.30       70.25    
        70.20       70.16       70.13       70.10       70.07       70.05       70.04       70.02       70.01       70.00    
   8  -1000.0       75.77       75.70       75.55       75.40       75.22       75.01       74.76       74.48       74.17    
        73.83       73.48       73.12       72.78       72.49       72.26       72.09       71.98       71.90       71.83    
        71.76       71.69       71.62       71.54       71.45       71.36       71.27       71.18       71.08       70.98    
        70.89       70.80       70.71       70.62       70.54       70.46       70.39       70.32       70.27       70.21    
        70.17       70.13       70.10       70.07       70.05       70.04       70.03       70.02       70.01       70.00    
   9  -1000.0       75.82       75.74       75.63       75.47       75.28       75.06       74.79       74.48       74.13    
        73.74       73.33       72.91       72.51       72.19       71.97       71.86       71.80       71.77       71.74    
        71.70       71.65       71.59       71.52       71.44       71.36       71.26       71.17       71.07       70.97    
        70.87       70.77       70.68       70.59       70.50       70.42       70.35       70.28       70.23       70.18    
        70.13       70.10       70.07       70.05       70.03       70.02       70.01       70.00       70.00       70.00    
  10  -1000.0       75.89       75.82       75.71       75.56       75.36       75.12       74.83       74.49       74.10    
        73.66       73.16       72.64       72.13       71.74       71.58       71.56       71.60       71.64       71.66    
        71.66       71.63       71.58       71.52       71.44       71.36       71.26       71.16       71.06       70.96    
        70.85       70.75       70.65       70.56       70.47       70.38       70.31       70.24       70.18       70.13    
        70.09       70.05       70.03       70.01       70.00       69.99       69.99       69.99       70.00       70.00    
  11  -1000.0       75.97       75.91       75.80       75.65       75.45       75.20       74.90       74.53       74.10    
        73.59       72.99       72.32       71.60       71.04       71.04       71.22       71.40       71.53       71.60    
        71.63       71.62       71.59       71.53       71.45       71.36       71.26       71.16       71.05       70.94    
        70.83       70.72       70.62       70.52       70.42       70.33       70.25       70.18       70.12       70.07    
        70.03       70.00       69.98       69.97       69.96       69.96       69.97       69.98       69.99       70.00    
  12  -1000.0       76.08       76.02       75.92       75.77       75.57       75.31       74.99       74.61       74.14    
        73.58       72.88       71.99       70.89       69.74       70.30       70.87       71.25       71.47       71.59    
        71.65       71.65       71.61       71.55       71.47       71.38       71.27       71.16       71.04       70.92    
        70.81       70.69       70.58       70.47       70.37       70.28       70.19       70.12       70.06       70.01    
        69.97       69.94       69.93       69.92       69.92       69.93       69.94       69.96       69.98       70.00    
  13  -1000.0       76.21       76.16       76.06       75.91       75.71       75.45       75.13       74.73       74.26    
        73.66       72.90       71.85       70.17       66.57       69.56       70.70       71.24       71.52       71.66    
        71.71       71.71       71.67       71.60       71.51       71.40       71.28       71.16       71.04       70.91    
        70.78       70.66       70.53       70.42       70.31       70.21       70.12       70.04       69.98       69.93    
        69.90       69.87       69.86       69.87       69.87       69.89       69.91       69.94       69.97       70.00    
  14  -1000.0       76.37       76.32       76.22       76.08       75.88       75.62       75.30       74.92       74.45    
        73.88       73.18       72.30       71.19       70.03       70.58       71.13       71.49       71.70       71.80    
        71.83       71.81       71.75       71.66       71.56       71.44       71.31       71.17       71.03       70.89    
        70.75       70.62       70.48       70.36       70.24       70.13       70.03       69.95       69.89       69.84    
        69.81       69.79       69.79       69.80       69.82       69.85       69.88       69.92       69.96       70.00    
  15  -1000.0       76.55       76.51       76.41       76.27       76.07       75.83       75.52       75.16       74.72    
        74.21       73.60       72.92       72.19       71.62       71.59       71.74       71.89       71.98       72.02    
        72.00       71.95       71.86       71.75       71.62       71.48       71.33       71.18       71.03       70.87    
        70.72       70.57       70.43       70.29       70.16       70.04       69.93       69.85       69.78       69.73    
        69.71       69.70       69.71       69.73       69.76       69.79       69.84       69.89       69.94       70.00    
  16  -1000.0       76.76       76.71       76.62       76.48       76.29       76.06       75.77       75.43       75.04    
        74.58       74.07       73.53       73.01       72.60       72.40       72.35       72.34       72.33       72.29    
        72.21       72.11       71.99       71.85       71.69       71.53       71.36       71.19       71.02       70.86    
        70.69       70.53       70.37       70.21       70.07       69.93       69.82       69.72       69.65       69.60    
        69.58       69.59       69.61       69.64       69.68       69.74       69.80       69.86       69.93       70.00    
  17  -1000.0       76.98       76.93       76.85       76.71       76.54       76.32       76.05       75.74       75.38    
        74.98       74.54       74.10       73.68       73.32       73.07       72.91       72.80       72.70       72.59    
        72.46       72.30       72.14       71.96       71.77       71.59       71.40       71.21       71.02       70.83    
        70.65       70.47       70.30       70.13       69.96       69.81       69.68       69.57       69.49       69.45    
        69.44       69.46       69.49       69.54       69.60       69.67       69.75       69.83       69.91       70.00    
  18  -1000.0       77.21       77.17       77.09       76.97       76.80       76.59       76.35       76.06       75.73    
        75.37       75.00       74.61       74.24       73.91       73.63       73.41       73.24       73.08       72.91    
        72.71       72.51       72.29       72.08       71.86       71.64       71.43       71.22       71.01       70.81    
        70.61       70.41       70.22       70.03       69.85       69.68       69.51       69.38       69.29       69.26    
        69.27       69.31       69.37       69.44       69.51       69.60       69.69       69.79       69.89       70.00    
  19  -1000.0       77.47       77.43       77.35       77.23       77.08       76.88       76.65       76.39       76.09    
        75.76       75.42       75.07       74.73       74.41       74.12       73.88       73.67       73.47       73.24    
        72.99       72.72       72.45       72.19       71.94       71.69       71.45       71.22       71.00       70.78    
        70.56       70.35       70.14       69.94       69.73       69.52       69.32       69.15       69.04       69.03    
        69.07       69.15       69.23       69.32       69.42       69.52       69.63       69.74       69.87       70.00    
  20  -1000.0       77.73       77.69       77.62       77.51       77.36       77.18       76.97       76.72       76.44    
        76.14       75.82       75.50       75.17       74.86       74.56       74.30       74.08       73.88       73.61    
        73.27       72.93       72.61       72.30       72.01       71.74       71.47       71.22       70.98       70.74    
        70.52       70.29       70.06       69.84       69.60       69.36       69.10       68.86       68.69       68.73    
        68.85       68.97       69.09       69.21       69.32       69.43       69.55       69.69       69.84       70.00    
  21  -1000.0       78.01       77.97       77.90       77.80       77.66       77.49       77.28       77.05       76.79    
        76.51       76.21       75.89       75.58       75.26       74.95       74.68       74.47       74.35       74.04    
        73.54       73.12       72.74       72.40       72.07       71.77       71.48       71.21       70.95       70.70    
        70.46       70.22       69.99       69.74       69.48       69.20       68.87       68.49       68.12       68.36    
        68.61       68.80       68.95       69.09       69.21       69.34       69.47       69.62       69.79       70.00    
  22  -1000.0       78.29       78.26       78.19       78.09       77.96       77.79       77.60       77.38       77.13    
        76.86       76.57       76.26       75.95       75.62       75.30       75.01       74.77       74.61       74.26    
        73.72       73.26       72.85       72.47       72.12       71.80       71.49       71.20       70.92       70.66    
        70.41       70.16       69.91       69.66       69.39       69.08       68.70       68.12       66.94       67.98    
        68.42       68.67       68.84       68.98       69.11       69.25       69.39       69.56       69.75       70.00    
  23  -1000.0       78.58       78.55       78.49       78.39       78.26       78.11       77.92       77.71       77.47    
        77.20       76.92       76.61       76.29       75.96       75.61       75.28       74.97       74.66       74.28    
        73.81       73.36       72.94       72.55       72.19       71.87       71.53       71.21       70.92       70.64    
        70.37       70.12       69.87       69.61       69.34       69.05       68.72       68.33       67.95       68.18    
        68.43       68.62       68.77       68.91       69.04       69.18       69.33       69.51       69.73       70.00    
  24  -1000.0       78.88       78.85       78.79       78.69       78.57       78.42       78.24       78.03       77.80    
        77.54       77.26       76.95       76.63       76.28       75.91       75.54       75.17       74.78       74.37    
        73.92       73.47       73.05       72.66       72.32       72.03       71.64       71.28       70.95       70.66    
        70.39       70.13       69.87       69.61       69.35       69.08       68.81       68.55       68.37       68.40    
        68.51       68.64       68.77       68.89       69.02       69.17       69.32       69.51       69.73       70.00    
  25  -1000.0       79.18       79.15       79.09       79.00       78.88       78.74       78.56       78.36       78.13    
        77.87       77.59       77.29       76.95       76.59       76.20       75.79       75.38       74.96       74.52    
        74.07       73.62       73.20       72.81       72.51       72.40       71.81       71.40       71.06       70.75    
        70.47       70.21       69.95       69.69       69.44       69.19       68.95       68.75       68.61       68.59    
        68.64       68.73       68.84       68.96       69.09       69.23       69.39       69.58       69.80       70.00    
  26  -1000.0       79.17       79.14       79.08       78.99       78.88       78.73       78.56       78.36       78.14    
        77.88       77.60       77.29       76.95       76.58       76.17       75.74       75.31       74.87       74.42    
        73.96       73.51       73.08       72.68       72.32       72.01       71.61       71.23       70.89       70.59    
        70.30       70.03       69.77       69.51       69.26       69.01       68.78       68.59       68.47       68.43    
        68.47       68.55       68.64       68.76       68.89       69.03       69.20       69.41       69.66       70.00    
  27  -1000.0       79.16       79.13       79.08       78.99       78.88       78.74       78.57       78.37       78.15    
        77.89       77.61       77.30       76.96       76.59       76.18       75.75       75.31       74.86       74.41    
        73.95       73.50       73.06       72.65       72.26       71.90       71.53       71.17       70.85       70.54    
        70.26       69.99       69.72       69.46       69.20       68.94       68.70       68.48       68.35       68.32    
        68.37       68.46       68.56       68.68       68.81       68.96       69.13       69.35       69.63       70.00    
  28  -1000.0       79.16       79.13       79.07       78.99       78.88       78.74       78.57       78.38       78.16    
        77.91       77.63       77.32       76.98       76.61       76.20       75.78       75.35       74.91       74.46    
        74.02       73.57       73.14       72.72       72.31       71.92       71.56       71.21       70.89       70.59    
        70.31       70.03       69.77       69.50       69.22       68.94       68.66       68.39       68.19       68.22    
        68.32       68.45       68.57       68.69       68.83       68.97       69.15       69.36       69.64       70.00    
  29  -1000.0       79.16       79.13       79.07       78.99       78.88       78.75       78.58       78.39       78.17    
        77.92       77.65       77.34       77.00       76.64       76.23       75.82       75.41       74.98       74.56    
        74.13       73.70       73.28       72.87       72.46       72.04       71.67       71.33       71.01       70.72    
        70.43       70.16       69.88       69.61       69.32       69.01       68.66       68.26       67.86       68.08    
        68.31       68.49       68.64       68.78       68.91       69.05       69.22       69.42       69.67       70.00    
  30  -1000.0       79.16       79.13       79.08       79.00       78.89       78.75       78.59       78.40       78.18    
        77.94       77.66       77.36       77.03       76.67       76.27       75.87       75.47       75.06       74.65    
        74.23       73.82       73.42       73.01       72.61       72.20       71.83       71.49       71.18       70.89    
        70.60       70.32       70.05       69.77       69.47       69.14       68.73       68.13       66.93       67.95    
        68.38       68.61       68.77       68.91       69.03       69.17       69.32       69.50       69.72       70.00    
  31  -1000.0       79.16       79.13       79.08       79.00       78.89       78.76       78.60       78.41       78.20    
        77.96       77.69       77.39       77.06       76.70       76.32       75.93       75.53       75.13       74.73    
        74.34       73.94       73.55       73.15       72.76       72.37       72.01       71.68       71.38       71.08    
        70.80       70.52       70.24       69.96       69.67       69.36       69.00       68.59       68.20       68.41    
        68.63       68.81       68.95       69.07       69.18       69.30       69.44       69.59       69.78       70.00    
  32  -1000.0       79.17       79.14       79.09       79.01       78.90       78.77       78.61       78.43       78.21    
        77.98       77.71       77.41       77.09       76.74       76.36       75.98       75.59       75.21       74.82    
        74.43       74.05       73.67       73.29       72.92       72.55       72.20       71.88       71.57       71.28    
        70.99       70.72       70.44       70.17       69.89       69.61       69.32       69.04       68.84       68.85    
        68.94       69.04       69.14       69.23       69.33       69.44       69.55       69.68       69.83       70.00    
  33  -1000.0       79.17       79.15       79.09       79.02       78.91       78.78       78.62       78.44       78.23    
        78.00       77.73       77.44       77.13       76.78       76.41       76.03       75.66       75.28       74.90    
        74.53       74.16       73.79       73.42       73.06       72.72       72.38       72.06       71.76       71.47    
        71.18       70.91       70.64       70.38       70.12       69.87       69.63       69.41       69.26       69.21    
        69.23       69.27       69.33       69.40       69.47       69.56       69.65       69.76       69.87       70.00    
  34  -1000.0       79.18       79.15       79.10       79.02       78.92       78.79       78.64       78.46       78.25    
        78.02       77.76       77.47       77.16       76.82       76.45       76.09       75.72       75.35       74.98    
        74.62       74.26       73.90       73.55       73.20       72.86       72.54       72.23       71.93       71.64    
        71.36       71.09       70.83       70.58       70.34       70.11       69.90       69.72       69.58       69.51    
        69.48       69.49       69.51       69.55       69.60       69.67       69.74       69.82       69.91       70.00    
  35  -1000.0       79.19       79.16       79.11       79.03       78.93       78.80       78.65       78.47       78.27    
        78.04       77.78       77.50       77.19       76.86       76.50       76.14       75.78       75.42       75.06    
        74.70       74.35       74.00       73.66       73.33       73.00       72.68       72.38       72.09       71.80    
        71.53       71.27       71.02       70.78       70.55       70.33       70.14       69.97       69.85       69.76    
        69.71       69.68       69.68       69.70       69.73       69.77       69.81       69.87       69.93       70.00    
  36  -1000.0       79.19       79.17       79.12       79.04       78.94       78.81       78.66       78.49       78.28    
        78.06       77.81       77.53       77.22       76.90       76.54       76.19       75.83       75.48       75.13    
        74.78       74.44       74.10       73.77       73.44       73.13       72.82       72.52       72.23       71.95    
        71.69       71.43       71.19       70.95       70.74       70.53       70.35       70.19       70.07       69.97    
        69.90       69.86       69.84       69.83       69.84       69.85       69.88       69.92       69.96       70.00    
  37  -1000.0       79.20       79.18       79.13       79.05       78.95       78.82       78.67       78.50       78.30    
        78.08       77.83       77.55       77.26       76.93       76.58       76.23       75.89       75.54       75.20    
        74.86       74.52       74.19       73.87       73.55       73.24       72.94       72.65       72.36       72.09    
        71.83       71.58       71.34       71.12       70.91       70.71       70.54       70.38       70.25       70.15    
        70.07       70.01       69.97       69.95       69.94       69.94       69.94       69.96       69.98       70.00    
  38  -1000.0       79.21       79.18       79.13       79.06       78.96       78.83       78.69       78.51       78.32    
        78.09       77.85       77.58       77.28       76.96       76.62       76.28       75.94       75.60       75.26    
        74.93       74.60       74.28       73.96       73.65       73.34       73.05       72.76       72.49       72.22    
        71.96       71.72       71.49       71.27       71.06       70.87       70.70       70.55       70.42       70.31    
        70.22       70.15       70.09       70.05       70.02       70.01       70.00       69.99       70.00       70.00    
  39  -1000.0       79.22       79.19       79.14       79.06       78.96       78.84       78.69       78.52       78.33    
        78.11       77.87       77.60       77.31       77.00       76.66       76.32       75.98       75.65       75.32    
        74.99       74.67       74.35       74.04       73.73       73.44       73.15       72.87       72.60       72.33    
        72.08       71.84       71.62       71.40       71.20       71.01       70.84       70.69       70.56       70.44    
        70.34       70.26       70.20       70.14       70.10       70.07       70.05       70.03       70.01       70.00    
  40  -1000.0       79.22       79.20       79.15       79.07       78.97       78.85       78.70       78.53       78.34    
        78.12       77.88       77.62       77.33       77.02       76.69       76.35       76.02       75.69       75.37    
        75.05       74.73       74.42       74.11       73.81       73.52       73.24       72.96       72.69       72.44    
        72.19       71.96       71.73       71.52       71.32       71.14       70.97       70.82       70.68       70.56    
        70.45       70.36       70.29       70.22       70.17       70.13       70.09       70.06       70.03       70.00    
  41  -1000.0       79.23       79.21       79.15       79.07       78.97       78.85       78.71       78.54       78.35    
        78.14       77.90       77.64       77.36       77.05       76.72       76.39       76.06       75.74       75.42    
        75.10       74.79       74.48       74.18       73.88       73.60       73.32       73.04       72.78       72.53    
        72.29       72.05       71.83       71.62       71.43       71.25       71.08       70.92       70.78       70.66    
        70.55       70.45       70.37       70.29       70.23       70.17       70.12       70.08       70.04       70.00    
  42  -1000.0       79.26       79.21       79.15       79.08       78.97       78.85       78.71       78.54       78.35    
        78.14       77.91       77.65       77.37       77.07       76.74       76.42       76.09       75.77       75.46    
        75.14       74.84       74.53       74.24       73.95       73.66       73.39       73.12       72.86       72.61    
        72.37       72.14       71.92       71.72       71.52       71.34       71.17       71.02       70.87       70.75    
        70.63       70.53       70.44       70.35       70.28       70.22       70.16       70.10       70.05       70.00    
  43  -1000.0       79.29       79.24       79.15       79.07       78.97       78.85       78.70       78.54       78.36    
        78.15       77.92       77.66       77.39       77.09       76.76       76.44       76.12       75.81       75.49    
        75.18       74.88       74.58       74.29       74.00       73.72       73.45       73.18       72.93       72.68    
        72.44       72.22       72.00       71.79       71.60       71.42       71.25       71.09       70.95       70.82    
        70.70       70.59       70.49       70.40       70.32       70.25       70.18       70.12       70.06       70.00    
  44  -1000.0     -1000.0       79.26       79.18       79.06       78.96       78.84       78.70       78.54       78.35    
        78.15       77.92       77.67       77.40       77.10       76.78       76.46       76.15       75.83       75.52    
        75.22       74.92       74.62       74.33       74.05       73.77       73.50       73.24       72.98       72.74    
        72.50       72.28       72.07       71.86       71.67       71.49       71.32       71.16       71.01       70.88    
        70.76       70.64       70.54       70.45       70.36       70.28       70.21       70.13       70.07       70.00    
  45  -1000.0     -1000.0     -1000.0       79.20       79.09       78.95       78.82       78.68       78.53       78.35    
        78.15       77.92       77.68       77.41       77.11       76.80       76.48       76.17       75.86       75.55    
        75.25       74.95       74.65       74.37       74.09       73.81       73.54       73.28       73.03       72.79    
        72.56       72.33       72.12       71.92       71.72       71.54       71.37       71.21       71.07       70.93    
        70.80       70.69       70.58       70.48       70.39       70.30       70.22       70.15       70.07       70.00    
  46  -1000.0     -1000.0     -1000.0     -1000.0       79.09       78.96       78.80       78.67       78.51       78.34    
        78.14       77.92       77.68       77.41       77.12       76.81       76.49       76.18       75.87       75.57    
        75.27       74.97       74.68       74.40       74.12       73.84       73.58       73.32       73.07       72.83    
        72.60       72.37       72.16       71.96       71.77       71.59       71.42       71.26       71.11       70.97    
        70.84       70.72       70.61       70.51       70.41       70.32       70.24       70.16       70.08       70.00    
  47  -1000.0     -1000.0     -1000.0     -1000.0     -1000.0       78.96       78.82       78.64       78.49       78.32    
        78.13       77.92       77.68       77.42       77.13       76.82       76.50       76.19       75.89       75.58    
        75.29       74.99       74.70       74.42       74.14       73.87       73.60       73.35       73.10       72.86    
        72.63       72.40       72.19       71.99       71.80       71.62       71.45       71.29       71.14       71.00    
        70.87       70.75       70.63       70.53       70.43       70.34       70.25       70.16       70.08       70.00    
  48  -1000.0     -1000.0     -1000.0     -1000.0     -1000.0     -1000.0       78.82       78.66       78.46       78.30    
        78.12       77.91       77.68       77.42       77.13       76.82       76.51       76.20       75.90       75.60    
        75.30       75.00       74.71       74.43       74.15       73.88       73.62       73.36       73.12       72.88    
        72.65       72.43       72.21       72.01       71.82       71.64       71.47       71.31       71.16       71.02    
        70.89       70.76       70.65       70.54       70.44       70.35       70.26       70.17       70.08       70.00    
  49  -1000.0     -1000.0     -1000.0     -1000.0     -1000.0     -1000.0     -1000.0       78.67       78.48       78.27    
        78.11       77.91       77.68       77.42       77.13       76.82       76.51       76.21       75.90       75.60    
        75.30       75.01       74.72       74.44       74.16       73.89       73.63       73.37       73.13       72.89    
        72.66       72.44       72.22       72.02       71.83       71.65       71.48       71.32       71.17       71.03    
        70.89       70.77       70.66       70.55       70.45       70.35       70.26       70.17       70.08       70.00    
  50  -1000.0     -1000.0     -1000.0     -1000.0     -1000.0     -1000.0     -1000.0     -1000.0     -1000.0     -1000.0    
      -1000.0     -1000.0     -1000.0     -1000.0     -1000.0     -1000.0     -1000.0     -1000.0     -1000.0     -1000.0    
      -1000.0     -1000.0     -1000.0     -1000.0     -1000.0     -1000.0     -1000.0     -1000.0     -1000.0     -1000.0    
      -1000.0     -1000.0     -1000.0     -1000.0     -1000.0     -1000.0     -1000.0     -1000.0     -1000.0     -1000.0    
      -1000.0     -1000.0     -1000.0     -1000.0     -1000.0     -1000.0     -1000.0     -1000.0     -1000.0       70.00    
1
              HEAD IN LAYER   3 AT END OF TIME STEP   1 IN STRESS PERIOD    1
  ---------------------------------------------------------------------------

            1           2           3           4           5           6           7           8           9          10
           11          12          13          14          15          16          17          18          19          20
           21          22          23          24          25          26          27          28          29          30
[...]
        73.81       73.36       72.94       72.55       72.19       71.87       71.53       71.22       70.92       70.64    
        70.37       70.12       69.87       69.61       69.34       69.05       68.72       68.33       67.95       68.18    
        68.43       68.62       68.77       68.91       69.04       69.18       69.33       69.51       69.73       70.00    
  24  -1000.0       78.88       78.85       78.79       78.69       78.57       78.42       78.24       78.03       77.80    
        77.54       77.26       76.95       76.63       76.28       75.91       75.54       75.17       74.78       74.37    
        73.92       73.47       73.05       72.66       72.32       72.03       71.64       71.28       70.96       70.66    
        70.39       70.13       69.87       69.61       69.35       69.09       68.81       68.55       68.37       68.40    
        68.51       68.64       68.77       68.90       69.03       69.17       69.33       69.51       69.73       70.00    
  25  -1000.0       79.18       79.15       79.09       79.00       78.88       78.74       78.56       78.36       78.13    
        77.87       77.59       77.29       76.95       76.59       76.20       75.79       75.38       74.96       74.52    
        74.07       73.62       73.20       72.81       72.51       72.39       71.81       71.40       71.06       70.75    
        70.47       70.20       69.95       69.69       69.44       69.19       68.95       68.74       68.61       68.59    
        68.64       68.73       68.84       68.96       69.08       69.23       69.39       69.58       69.79       70.00    
  26  -1000.0       79.17       79.14       79.08       78.99       78.88       78.73       78.56       78.36       78.14    
        77.88       77.60       77.29       76.95       76.58       76.17       75.74       75.31       74.87       74.42    
        73.96       73.51       73.08       72.68       72.32       72.02       71.61       71.23       70.89       70.59    
        70.30       70.03       69.77       69.52       69.26       69.02       68.79       68.59       68.47       68.43    
        68.47       68.55       68.65       68.76       68.89       69.03       69.20       69.41       69.67       70.00    
  27  -1000.0       79.16       79.13       79.08       78.99       78.88       78.74       78.57       78.37       78.15    
        77.89       77.61       77.30       76.96       76.59       76.18       75.75       75.31       74.86       74.41    
        73.95       73.50       73.07       72.65       72.26       71.90       71.53       71.17       70.85       70.54    
        70.26       69.99       69.72       69.46       69.20       68.94       68.70       68.49       68.35       68.32    
        68.37       68.46       68.56       68.68       68.81       68.96       69.13       69.35       69.63       70.00    
  28  -1000.0       79.16       79.13       79.07       78.99       78.88       78.74       78.57       78.38       78.16    
        77.91       77.63       77.32       76.98       76.61       76.20       75.78       75.35       74.91       74.46    
        74.02       73.57       73.14       72.72       72.31       71.92       71.56       71.22       70.90       70.60    
        70.31       70.04       69.77       69.50       69.22       68.94       68.66       68.39       68.19       68.22    
        68.32       68.45       68.57       68.69       68.83       68.97       69.15       69.36       69.64       70.00    
  29  -1000.0       79.16       79.13       79.07       78.99       78.88       78.75       78.58       78.39       78.17    
        77.92       77.64       77.34       77.00       76.64       76.23       75.82       75.41       74.98       74.56    
        74.13       73.70       73.28       72.87       72.46       72.04       71.67       71.33       71.01       70.72    
        70.43       70.16       69.88       69.61       69.32       69.01       68.66       68.26       67.86       68.08    
        68.31       68.49       68.64       68.78       68.91       69.05       69.22       69.42       69.67       70.00    
  30  -1000.0       79.16       79.13       79.08       79.00       78.89       78.75       78.59       78.40       78.18    
        77.94       77.66       77.36       77.03       76.67       76.27       75.87       75.47       75.06       74.65    
        74.23       73.82       73.42       73.01       72.61       72.20       71.83       71.50       71.18       70.89    
        70.60       70.32       70.05       69.77       69.47       69.14       68.73       68.13       66.90       67.95    
        68.38       68.61       68.77       68.91       69.03       69.17       69.32       69.50       69.72       70.00    
  31  -1000.0       79.16       79.13       79.08       79.00       78.89       78.76       78.60       78.41       78.20    
        77.96       77.69       77.39       77.06       76.70       76.32       75.93       75.53       75.13       74.73    
        74.34       73.94       73.55       73.15       72.76       72.37       72.02       71.69       71.38       71.08    
        70.80       70.52       70.24       69.96       69.67       69.36       69.00       68.59       68.19       68.41    
        68.63       68.81       68.95       69.07       69.18       69.30       69.44       69.60       69.78       70.00    
  32  -1000.0       79.17       79.14       79.09       79.01       78.90       78.77       78.61       78.43       78.21    
        77.98       77.71       77.41       77.09       76.74       76.36       75.98       75.59       75.21       74.82    
        74.43       74.05       73.67       73.29       72.92       72.55       72.20       71.88       71.57       71.28    
        70.99       70.72       70.44       70.17       69.89       69.61       69.32       69.04       68.84       68.85    
        68.94       69.04       69.14       69.23       69.33       69.44       69.55       69.68       69.83       70.00    
  33  -1000.0       79.17       79.15       79.09       79.02       78.91       78.78       78.62       78.44       78.23    
        78.00       77.73       77.44       77.13       76.78       76.41       76.03       75.66       75.28       74.90    
        74.53       74.16       73.79       73.42       73.06       72.72       72.38       72.06       71.76       71.47    
        71.18       70.91       70.64       70.38       70.12       69.87       69.63       69.41       69.26       69.21    
        69.23       69.27       69.33       69.40       69.47       69.56       69.65       69.76       69.87       70.00    
  34  -1000.0       79.18       79.15       79.10       79.02       78.92       78.79       78.64       78.46       78.25    
        78.02       77.76       77.47       77.16       76.82       76.45       76.09       75.72       75.35       74.98    
        74.62       74.26       73.90       73.55       73.20       72.86       72.54       72.23       71.93       71.64    
        71.36       71.09       70.83       70.58       70.34       70.11       69.90       69.72       69.58       69.51    
        69.48       69.49       69.51       69.55       69.60       69.67       69.74       69.82       69.91       70.00    
  35  -1000.0       79.19       79.16       79.11       79.03       78.93       78.80       78.65       78.47       78.27    
        78.04       77.78       77.50       77.19       76.86       76.50       76.14       75.78       75.42       75.06    
        74.70       74.35       74.00       73.66       73.33       73.00       72.68       72.38       72.09       71.80    
        71.53       71.27       71.02       70.78       70.55       70.33       70.14       69.97       69.85       69.76    
        69.71       69.68       69.68       69.70       69.73       69.77       69.81       69.87       69.93       70.00    
  36  -1000.0       79.19       79.17       79.12       79.04       78.94       78.81       78.66       78.49       78.28    
        78.06       77.81       77.53       77.22       76.90       76.54       76.19       75.83       75.48       75.13    
        74.78       74.44       74.10       73.77       73.44       73.13       72.82       72.52       72.23       71.95    
        71.69       71.43       71.19       70.95       70.74       70.53       70.35       70.19       70.07       69.97    
        69.90       69.86       69.84       69.83       69.84       69.85       69.88       69.92       69.96       70.00    
  37  -1000.0       79.20       79.18       79.13       79.05       78.95       78.82       78.67       78.50       78.30    
        78.08       77.83       77.55       77.26       76.93       76.58       76.23       75.89       75.54       75.20    
        74.86       74.52       74.19       73.87       73.55       73.24       72.94       72.65       72.36       72.09    
        71.83       71.58       71.34       71.12       70.91       70.71       70.54       70.38       70.25       70.15    
        70.07       70.01       69.97       69.95       69.94       69.94       69.94       69.96       69.98       70.00    
  38  -1000.0       79.21       79.18       79.13       79.06       78.96       78.83       78.69       78.51       78.32    
        78.09       77.85       77.58       77.28       76.96       76.62       76.28       75.94       75.60       75.26    
        74.93       74.60       74.28       73.96       73.65       73.34       73.05       72.76       72.49       72.22    
        71.96       71.72       71.49       71.27       71.06       70.87       70.70       70.55       70.42       70.31    
        70.22       70.15       70.09       70.05       70.02       70.01       70.00       69.99       70.00       70.00    
  39  -1000.0       79.22       79.19       79.14       79.06       78.96       78.84       78.69       78.52       78.33    
        78.11       77.87       77.60       77.31       77.00       76.66       76.32       75.98       75.65       75.32    
        74.99       74.67       74.35       74.04       73.73       73.44       73.15       72.87       72.60       72.33    
        72.08       71.84       71.62       71.40       71.20       71.01       70.84       70.69       70.56       70.44    
        70.34       70.26       70.20       70.14       70.10       70.07       70.05       70.03       70.01       70.00    
  40  -1000.0       79.22       79.20       79.15       79.07       78.97       78.85       78.70       78.53       78.34    
        78.12       77.88       77.62       77.33       77.02       76.69       76.35       76.02       75.69       75.37    
        75.05       74.73       74.42       74.11       73.81       73.52       73.24       72.96       72.69       72.44    
        72.19       71.96       71.73       71.52       71.32       71.14       70.97       70.82       70.68       70.56    
        70.45       70.36       70.29       70.22       70.17       70.13       70.09       70.06       70.03       70.00    
  41  -1000.0       79.23       79.21       79.15       79.07       78.97       78.85       78.71       78.54       78.35    
        78.14       77.90       77.64       77.36       77.05       76.72       76.39       76.06       75.74       75.42    
        75.10       74.79       74.48       74.18       73.88       73.60       73.32       73.04       72.78       72.53    
        72.29       72.05       71.83       71.62       71.43       71.25       71.08       70.92       70.78       70.66    
        70.55       70.45       70.37       70.29       70.23       70.17       70.12       70.08       70.04       70.00    
  42  -1000.0     -1000.0       79.21       79.15       79.08       78.97       78.85       78.71       78.54       78.35    
        78.14       77.91       77.65       77.37       77.07       76.74       76.42       76.09       75.77       75.46    
        75.14       74.84       74.53       74.24       73.95       73.66       73.39       73.12       72.86       72.61    
        72.37       72.14       71.92       71.72       71.52       71.34       71.17       71.02       70.87       70.75    
        70.63       70.53       70.44       70.35       70.28       70.22       70.16       70.10       70.05       70.00    
  43  -1000.0     -1000.0     -1000.0       79.15       79.07       78.97       78.85       78.70       78.54       78.36    
        78.15       77.92       77.66       77.39       77.09       76.76       76.44       76.12       75.81       75.49    
        75.18       74.88       74.58       74.29       74.00       73.72       73.45       73.18       72.93       72.68    
        72.44       72.22       72.00       71.79       71.60       71.42       71.25       71.09       70.95       70.82    
        70.70       70.59       70.49       70.40       70.32       70.25       70.18       70.12       70.06       70.00    
  44  -1000.0     -1000.0     -1000.0     -1000.0       79.06       78.96       78.84       78.70       78.54       78.35    
        78.15       77.92       77.67       77.40       77.10       76.78       76.46       76.15       75.83       75.52    
        75.22       74.92       74.62       74.33       74.05       73.77       73.50       73.24       72.98       72.74    
        72.50       72.28       72.07       71.86       71.67       71.49       71.32       71.16       71.01       70.88    
        70.76       70.64       70.54       70.45       70.36       70.28       70.21       70.13       70.07       70.00    
  45  -1000.0     -1000.0     -1000.0     -1000.0     -1000.0       78.94       78.82       78.68       78.53       78.35    
        78.15       77.92       77.68       77.41       77.11       76.80       76.48       76.17       75.86       75.55    
        75.25       74.95       74.65       74.37       74.09       73.81       73.54       73.28       73.03       72.79    
        72.56       72.33       72.12       71.92       71.72       71.54       71.37       71.21       71.07       70.93    
        70.80       70.69       70.58       70.48       70.39       70.30       70.22       70.15       70.07       70.00    
  46  -1000.0     -1000.0     -1000.0     -1000.0     -1000.0     -1000.0       78.80       78.67       78.51       78.34    
        78.14       77.92       77.68       77.41       77.12       76.81       76.49       76.18       75.87       75.57    
        75.27       74.97       74.68       74.40       74.12       73.84       73.58       73.32       73.07       72.83    
        72.60       72.37       72.16       71.96       71.77       71.59       71.42       71.26       71.11       70.97    
        70.84       70.72       70.61       70.51       70.41       70.32       70.24       70.16       70.08       70.00    
  47  -1000.0     -1000.0     -1000.0     -1000.0     -1000.0     -1000.0     -1000.0       78.64       78.49       78.32    
        78.13       77.92       77.68       77.42       77.13       76.82       76.50       76.19       75.89       75.58    
        75.29       74.99       74.70       74.42       74.14       73.87       73.60       73.35       73.10       72.86    
        72.63       72.40       72.19       71.99       71.80       71.62       71.45       71.29       71.14       71.00    
        70.87       70.75       70.63       70.53       70.43       70.34       70.25       70.16       70.08       70.00    
  48  -1000.0     -1000.0     -1000.0     -1000.0     -1000.0     -1000.0     -1000.0     -1000.0       78.46       78.30    
        78.12       77.91       77.68       77.42       77.13       76.82       76.51       76.20       75.90       75.60    
        75.30       75.00       74.71       74.43       74.15       73.88       73.62       73.36       73.12       72.88    
        72.65       72.43       72.21       72.01       71.82       71.64       71.47       71.31       71.16       71.02    
        70.89       70.76       70.65       70.54       70.44       70.35       70.26       70.17       70.08       70.00    
  49  -1000.0     -1000.0     -1000.0     -1000.0     -1000.0     -1000.0     -1000.0     -1000.0     -1000.0       78.27    
        78.11       77.91       77.68       77.42       77.13       76.82       76.51       76.21       75.90       75.60    
        75.30       75.01       74.72       74.44       74.16       73.89       73.63       73.37       73.13       72.89    
        72.66       72.44       72.22       72.02       71.83       71.65       71.48       71.32       71.17       71.03    
        70.89       70.77       70.66       70.55       70.45       70.35       70.26       70.17       70.08       70.00    
  50  -1000.0     -1000.0     -1000.0     -1000.0     -1000.0     -1000.0     -1000.0     -1000.0     -1000.0     -1000.0    
      -1000.0     -1000.0     -1000.0     -1000.0     -1000.0     -1000.0     -1000.0     -1000.0     -1000.0     -1000.0    
      -1000.0     -1000.0     -1000.0     -1000.0     -1000.0     -1000.0     -1000.0     -1000.0     -1000.0     -1000.0    
      -1000.0     -1000.0     -1000.0     -1000.0     -1000.0     -1000.0     -1000.0     -1000.0     -1000.0     -1000.0    
      -1000.0     -1000.0     -1000.0     -1000.0     -1000.0     -1000.0     -1000.0     -1000.0     -1000.0       70.00    

 HEAD WILL BE SAVED ON UNIT   51 AT END OF TIME STEP    1, STRESS PERIOD    1

 DRAWDOWN WILL BE SAVED ON UNIT   52 AT END OF TIME STEP    1, STRESS PERIOD    1
1
  VOLUMETRIC BUDGET FOR ENTIRE MODEL AT END OF TIME STEP    1, STRESS PERIOD   1
  ------------------------------------------------------------------------------

     CUMULATIVE VOLUMES      L**3       RATES FOR THIS TIME STEP      L**3/T
     ------------------                 ------------------------

           IN:                                      IN:
           ---                                      ---
             STORAGE =           0.0000               STORAGE =           0.0000
       CONSTANT HEAD =        1519.2423         CONSTANT HEAD =        1519.2423
               WELLS =         375.0000                 WELLS =         375.0000
       RIVER LEAKAGE =        6000.0000         RIVER LEAKAGE =        6000.0000
                  ET =           0.0000                    ET =           0.0000
            RECHARGE =        7120.0000              RECHARGE =        7120.0000

            TOTAL IN =       15014.2422              TOTAL IN =       15014.2422

          OUT:                                     OUT:
          ----                                     ----
             STORAGE =           0.0000               STORAGE =           0.0000
       CONSTANT HEAD =         269.9627         CONSTANT HEAD =         269.9627
               WELLS =        7500.0000                 WELLS =        7500.0000
       RIVER LEAKAGE =           0.0000         RIVER LEAKAGE =           0.0000
                  ET =        7244.2690                    ET =        7244.2690
            RECHARGE =           0.0000              RECHARGE =           0.0000

           TOTAL OUT =       15014.2324             TOTAL OUT =       15014.2324

            IN - OUT =       9.7656E-03              IN - OUT =       9.7656E-03

 PERCENT DISCREPANCY =           0.00     PERCENT DISCREPANCY =           0.00






         TIME SUMMARY AT END OF TIME STEP    1 IN STRESS PERIOD    1
                    SECONDS     MINUTES      HOURS       DAYS        YEARS
                    -----------------------------------------------------------
   TIME STEP LENGTH  86400.      1440.0      24.000      1.0000     2.73785E-03
 STRESS PERIOD TIME  86400.      1440.0      24.000      1.0000     2.73785E-03
         TOTAL TIME  86400.      1440.0      24.000      1.0000     2.73785E-03
1

 Run end date and time (yyyy/mm/dd hh:mm:ss): 2026/02/25  7:16:00
 Elapsed run time: 13.162 Seconds

