                                  MODFLOW-2005     
      U.S. GEOLOGICAL SURVEY MODULAR FINITE-DIFFERENCE GROUND-WATER FLOW MODEL
                            VERSION 1.12.00 2/3/2017

 LIST FILE: static_ensemble_S1bc_3333113.list
                         UNIT    2

 OPENING static_ensemble_S1bc_3333113.dis
 FILE TYPE:DIS   UNIT   11   STATUS:OLD    
 FORMAT:FORMATTED              ACCESS:SEQUENTIAL          

 OPENING static_ensemble_S1bc_3333113.bas
 FILE TYPE:BAS6   UNIT   13   STATUS:OLD    
 FORMAT:FORMATTED              ACCESS:SEQUENTIAL          

 OPENING static_ensemble_S1bc_3333113.lpf
 FILE TYPE:LPF   UNIT   15   STATUS:OLD    
 FORMAT:FORMATTED              ACCESS:SEQUENTIAL          

 OPENING static_ensemble_S1bc_3333113.evt
 FILE TYPE:EVT   UNIT   22   STATUS:OLD    
 FORMAT:FORMATTED              ACCESS:SEQUENTIAL          

 OPENING static_ensemble_S1bc_3333113.rch
 FILE TYPE:RCH   UNIT   19   STATUS:OLD    
 FORMAT:FORMATTED              ACCESS:SEQUENTIAL          

 OPENING static_ensemble_S1bc_3333113.riv
 FILE TYPE:RIV   UNIT   18   STATUS:OLD    
 FORMAT:FORMATTED              ACCESS:SEQUENTIAL          

 OPENING static_ensemble_S1bc_3333113.wel
 FILE TYPE:WEL   UNIT   20   STATUS:OLD    
 FORMAT:FORMATTED              ACCESS:SEQUENTIAL          

 OPENING static_ensemble_S1bc_3333113.oc
 FILE TYPE:OC   UNIT   14   STATUS:OLD    
 FORMAT:FORMATTED              ACCESS:SEQUENTIAL          

 OPENING static_ensemble_S1bc_3333113.pcg
 FILE TYPE:PCG   UNIT   27   STATUS:OLD    
 FORMAT:FORMATTED              ACCESS:SEQUENTIAL          

 OPENING static_ensemble_S1bc_3333113.cbc
 FILE TYPE:DATA(BINARY)   UNIT   53   STATUS:REPLACE
 FORMAT:UNFORMATTED            ACCESS:STREAM              

 OPENING static_ensemble_S1bc_3333113.hds
 FILE TYPE:DATA(BINARY)   UNIT   51   STATUS:REPLACE
 FORMAT:UNFORMATTED            ACCESS:STREAM              

 OPENING static_ensemble_S1bc_3333113.ddn
 FILE TYPE:DATA(BINARY)   UNIT   52   STATUS:REPLACE
 FORMAT:UNFORMATTED            ACCESS:STREAM              

 BAS -- BASIC PACKAGE, VERSION 7, 5/2/2005 INPUT READ FROM UNIT   13
 
 MODFLOW was compiled using mixed precision
 Precision of REAL variables:           6
 Precision of DOUBLE PRECISION variables:          15

 DISCRETIZATION INPUT DATA READ FROM UNIT   11
 # DIS package for MODFLOW-2005 generated by Flopy 3.10.0
    3 LAYERS        50 ROWS        50 COLUMNS
    1 STRESS PERIOD(S) IN SIMULATION
 MODEL TIME UNIT IS DAYS
 MODEL LENGTH UNIT IS METERS
  Confining bed flag for each layer:
   0   0   0

                     DELR =   1000.00    

                     DELC =   1000.00    



           TOP ELEVATION OF LAYER 1
 READING ON UNIT   11 WITH FORMAT: (50E15.6)           



             MODEL LAYER BOTTOM EL. FOR LAYER   1
 READING ON UNIT   11 WITH FORMAT: (50E15.6)           



             MODEL LAYER BOTTOM EL. FOR LAYER   2
 READING ON UNIT   11 WITH FORMAT: (50E15.6)           



             MODEL LAYER BOTTOM EL. FOR LAYER   3
 READING ON UNIT   11 WITH FORMAT: (50E15.6)           


 STRESS PERIOD     LENGTH       TIME STEPS     MULTIPLIER FOR DELT    SS FLAG
 ----------------------------------------------------------------------------
        1         1.000000          1                    1.000         SS

 STEADY-STATE SIMULATION



 
 # BAS6 package for MODFLOW-2005 generated by Flopy 3.10.0                       
 THE FREE FORMAT OPTION HAS BEEN SELECTED



                     BOUNDARY ARRAY FOR LAYER   1
 READING ON UNIT   13 WITH FORMAT: (50I10)             



                     BOUNDARY ARRAY FOR LAYER   2
 READING ON UNIT   13 WITH FORMAT: (50I10)             



                     BOUNDARY ARRAY FOR LAYER   3
 READING ON UNIT   13 WITH FORMAT: (50I10)             

 AQUIFER HEAD WILL BE SET TO  -999.99     AT ALL NO-FLOW NODES (IBOUND=0).



                       INITIAL HEAD FOR LAYER   1
 READING ON UNIT   13 WITH FORMAT: (50E15.6)           



                       INITIAL HEAD FOR LAYER   2
 READING ON UNIT   13 WITH FORMAT: (50E15.6)           



                       INITIAL HEAD FOR LAYER   3
 READING ON UNIT   13 WITH FORMAT: (50E15.6)           
 # OC package for MODFLOW-2005 generated by Flopy 3.10.0

 OUTPUT CONTROL IS SPECIFIED ONLY AT TIME STEPS FOR WHICH OUTPUT IS DESIRED
 COMPACT CELL-BY-CELL BUDGET FILES WILL BE WRITTEN
 AUXILIARY DATA WILL BE SAVED IN CELL-BY-CELL BUDGET FILES
 HEAD PRINT FORMAT CODE IS   0    DRAWDOWN PRINT FORMAT CODE IS   0
 HEADS WILL BE SAVED ON UNIT   51    DRAWDOWNS WILL BE SAVED ON UNIT   52

 LPF -- LAYER-PROPERTY FLOW PACKAGE, VERSION 7, 5/2/2005
         INPUT READ FROM UNIT   15
 # LPF package for MODFLOW-2005 generated by Flopy 3.10.0
 CELL-BY-CELL FLOWS WILL BE SAVED ON UNIT   53
 HEAD AT CELLS THAT CONVERT TO DRY= -1.00000E+30
 No named parameters
 STORAGECOEFFICIENT OPTION:
 Read storage coefficient rather than specific storage

   LAYER FLAGS:
 LAYER       LAYTYP        LAYAVG         CHANI        LAYVKA        LAYWET
 ---------------------------------------------------------------------------
    1             1             0     1.000E+00             0             0
    2             1             0     1.000E+00             0             0
    3             1             0     1.000E+00             0             0

   INTERPRETATION OF LAYER FLAGS:
                        INTERBLOCK     HORIZONTAL    DATA IN
         LAYER TYPE   TRANSMISSIVITY   ANISOTROPY   ARRAY VKA   WETTABILITY
 LAYER      (LAYTYP)      (LAYAVG)       (CHANI)      (LAYVKA)      (LAYWET)
 ---------------------------------------------------------------------------
    1   CONVERTIBLE      HARMONIC     1.000E+00    VERTICAL K  NON-WETTABLE
    2   CONVERTIBLE      HARMONIC     1.000E+00    VERTICAL K  NON-WETTABLE
    3   CONVERTIBLE      HARMONIC     1.000E+00    VERTICAL K  NON-WETTABLE

 WETTING CAPABILITY IS NOT ACTIVE IN ANY LAYER



              HYD. COND. ALONG ROWS FOR LAYER   1
 READING ON UNIT   15 WITH FORMAT: (50E15.6)           



                VERTICAL HYD. COND. FOR LAYER   1
 READING ON UNIT   15 WITH FORMAT: (50E15.6)           



              HYD. COND. ALONG ROWS FOR LAYER   2
 READING ON UNIT   15 WITH FORMAT: (50E15.6)           



                VERTICAL HYD. COND. FOR LAYER   2
 READING ON UNIT   15 WITH FORMAT: (50E15.6)           



              HYD. COND. ALONG ROWS FOR LAYER   3
 READING ON UNIT   15 WITH FORMAT: (50E15.6)           



                VERTICAL HYD. COND. FOR LAYER   3
 READING ON UNIT   15 WITH FORMAT: (50E15.6)           

 WEL -- WELL PACKAGE, VERSION 7, 5/2/2005 INPUT READ FROM UNIT   20
 # WEL package for MODFLOW-2005 generated by Flopy 3.10.0
 No named parameters
 MAXIMUM OF      3 ACTIVE WELLS AT ONE TIME


     0 Well parameters

 RIV -- RIVER PACKAGE, VERSION 7, 5/2/2005 INPUT READ FROM UNIT   18
 # RIV package for MODFLOW-2005 generated by Flopy 3.10.0
 No named parameters
 MAXIMUM OF     49 ACTIVE RIVER REACHES AT ONE TIME
 CELL-BY-CELL FLOWS WILL BE SAVED ON UNIT   53


     0 River parameters

 EVT -- EVAPOTRANSPIRATION PACKAGE, VERSION 7, 5/2/2005
         INPUT READ FROM UNIT   22
 # EVT package for MODFLOW-2005 generated by Flopy 3.10.0
 No named parameters
 OPTION 3 -- EVAPOTRANSPIRATION FROM HIGHEST ACTIVE NODE IN EACH VERTICAL COLUMN
 CELL-BY-CELL FLOWS WILL BE SAVED ON UNIT   53


     0 Evapotranspiration parameters

 RCH -- RECHARGE PACKAGE, VERSION 7, 5/2/2005 INPUT READ FROM UNIT   19
 # RCH package for MODFLOW-2005 generated by Flopy 3.10.0
 No named parameters
 OPTION 3 -- RECHARGE TO HIGHEST ACTIVE NODE IN EACH VERTICAL COLUMN
 CELL-BY-CELL FLOWS WILL BE SAVED ON UNIT   53


     0 Recharge parameters

 PCG -- CONJUGATE-GRADIENT SOLUTION PACKAGE, VERSION 7, 5/2/2005
 # PCG package for MODFLOW-2005 generated by Flopy 3.10.0
 MAXIMUM OF   5000 CALLS OF SOLUTION ROUTINE
 MAXIMUM OF    500 INTERNAL ITERATIONS PER CALL TO SOLUTION ROUTINE
 MATRIX PRECONDITIONING TYPE :    1



                                    SOLUTION BY THE CONJUGATE-GRADIENT METHOD
                                   -------------------------------------------
                    MAXIMUM NUMBER OF CALLS TO PCG ROUTINE =     5000
                        MAXIMUM ITERATIONS PER CALL TO PCG =      500
                               MATRIX PRECONDITIONING TYPE =        1
        RELAXATION FACTOR (ONLY USED WITH PRECOND. TYPE 1) =    0.97000E+00
 PARAMETER OF POLYNOMIAL PRECOND. = 2 (2) OR IS CALCULATED :        0
                         HEAD CHANGE CRITERION FOR CLOSURE =    0.10000E-04
                     RESIDUAL CHANGE CRITERION FOR CLOSURE =    0.10000E-04
            PCG HEAD AND RESIDUAL CHANGE PRINTOUT INTERVAL =      999
     PRINTING FROM SOLVER IS LIMITED(1) OR SUPPRESSED (>1) =        3
                            STEADY-STATE DAMPING PARAMETER =    0.10000E-01
                               TRANSIENT DAMPING PARAMETER =    0.10000E-01
1
                            STRESS PERIOD NO.    1, LENGTH =   1.000000    
                            -----------------------------------------------

                              NUMBER OF TIME STEPS =     1

                               MULTIPLIER FOR DELT =     1.000

                            INITIAL TIME STEP SIZE =   1.000000    

 WELL NO.  LAYER   ROW   COL   STRESS RATE         
 --------------------------------------------------
      1      3     22     39      -1500.    
      2      1     13     15      -4500.    
      3      1     25     26       375.0    

      3 WELLS

 REACH NO.  LAYER   ROW   COL     STAGE      CONDUCTANCE     BOTTOM EL.         
 -------------------------------------------------------------------------------
      1      1     25      2       100.5          0.1000E+06       98.00    
      2      1     25      3       99.50          0.1000E+06       97.00    
      3      1     25      4       98.50          0.1000E+06       96.00    
      4      1     25      5       97.50          0.1000E+06       95.00    
      5      1     25      6       96.50          0.1000E+06       94.00    
      6      1     25      7       95.50          0.1000E+06       93.00    
      7      1     25      8       94.50          0.1000E+06       92.00    
      8      1     25      9       93.50          0.1000E+06       91.00    
      9      1     25     10       92.50          0.1000E+06       90.00    
     10      1     25     11       91.50          0.1000E+06       89.00    
     11      1     25     12       90.50          0.1000E+06       88.00    
     12      1     25     13       89.50          0.1000E+06       87.00    
     13      1     25     14       88.50          0.1000E+06       86.00    
     14      1     25     15       87.50          0.1000E+06       85.00    
     15      1     25     16       86.50          0.1000E+06       84.00    
     16      1     25     17       85.50          0.1000E+06       83.00    
     17      1     25     18       84.50          0.1000E+06       82.00    
     18      1     25     19       83.50          0.1000E+06       81.00    
     19      1     25     20       82.50          0.1000E+06       80.00    
     20      1     25     21       81.50          0.1000E+06       79.00    
     21      1     25     22       80.50          0.1000E+06       78.00    
     22      1     25     23       79.50          0.1000E+06       77.00    
     23      1     25     24       78.50          0.1000E+06       76.00    
     24      1     25     25       77.50          0.1000E+06       75.00    
     25      1     25     26       77.40          0.1000E+06       74.90    
     26      1     25     27       77.30          0.1000E+06       74.80    
     27      1     25     28       77.20          0.1000E+06       74.70    
     28      1     25     29       77.10          0.1000E+06       74.60    
     29      1     25     30       77.00          0.1000E+06       74.50    
     30      1     25     31       76.90          0.1000E+06       74.40    
     31      1     25     32       76.80          0.1000E+06       74.30    
     32      1     25     33       76.70          0.1000E+06       74.20    
     33      1     25     34       76.60          0.1000E+06       74.10    
     34      1     25     35       76.50          0.1000E+06       74.00    
     35      1     25     36       76.40          0.1000E+06       73.90    
     36      1     25     37       76.30          0.1000E+06       73.80    
     37      1     25     38       76.20          0.1000E+06       73.70    
     38      1     25     39       76.10          0.1000E+06       73.60    
     39      1     25     40       76.00          0.1000E+06       73.50    
     40      1     25     41       75.90          0.1000E+06       73.40    
     41      1     25     42       75.80          0.1000E+06       73.30    
     42      1     25     43       75.70          0.1000E+06       73.20    
     43      1     25     44       75.60          0.1000E+06       73.10    
     44      1     25     45       75.50          0.1000E+06       73.00    
     45      1     25     46       75.40          0.1000E+06       72.90    
     46      1     25     47       75.30          0.1000E+06       72.80    
     47      1     25     48       75.20          0.1000E+06       72.70    
     48      1     25     49       75.10          0.1000E+06       72.60    
     49      1     25     50       75.00          0.1000E+06       72.50    

     49 RIVER REACHES



                         ET SURFACE
 READING ON UNIT   22 WITH FORMAT: (50E15.6)           



            EVAPOTRANSPIRATION RATE
 READING ON UNIT   22 WITH FORMAT: (50E15.6)           

         EXTINCTION DEPTH =   10.0000    



                           RECHARGE
 READING ON UNIT   19 WITH FORMAT: (50E15.6)           
 
 SOLVING FOR HEAD 

 OUTPUT CONTROL FOR STRESS PERIOD    1   TIME STEP    1
    SAVE HEAD FOR ALL LAYERS
    SAVE DRAWDOWN FOR ALL LAYERS
    SAVE BUDGET
    PRINT HEAD FOR ALL LAYERS
    PRINT BUDGET
 UBDSV2 SAVING "   CONSTANT HEAD" ON UNIT  53 AT TIME STEP  1, STRESS PERIOD   1
 UBDSV1 SAVING "FLOW RIGHT FACE " ON UNIT  53 AT TIME STEP  1, STRESS PERIOD   1
 UBDSV1 SAVING "FLOW FRONT FACE " ON UNIT  53 AT TIME STEP  1, STRESS PERIOD   1
 UBDSV1 SAVING "FLOW LOWER FACE " ON UNIT  53 AT TIME STEP  1, STRESS PERIOD   1
 UBDSV4 SAVING "   RIVER LEAKAGE" ON UNIT  53 AT TIME STEP  1, STRESS PERIOD   1
 UBDSV3 SAVING "              ET" ON UNIT  53 AT TIME STEP  1, STRESS PERIOD   1
 UBDSV3 SAVING "        RECHARGE" ON UNIT  53 AT TIME STEP  1, STRESS PERIOD   1
1
              HEAD IN LAYER   1 AT END OF TIME STEP   1 IN STRESS PERIOD    1
  ---------------------------------------------------------------------------

            1           2           3           4           5           6           7           8           9          10
           11          12          13          14          15          16          17          18          19          20
           21          22          23          24          25          26          27          28          29          30
           31          32          33          34          35          36          37          38          39          40
           41          42          43          44          45          46          47          48          49          50
 ........................................................................................................................
   1    70.00       70.60       71.19       71.75       72.29       72.81       73.28       73.73       74.14       74.50    
        74.84       75.13       75.38       75.59       75.77       75.90       76.01       76.09       76.14       76.16    
        76.16       76.14       76.09       76.03       75.94       75.84       75.72       75.59       75.44       75.28    
        75.10       74.91       74.71       74.50       74.28       74.05       73.81       73.56       73.30       73.04    
        72.76       72.48       72.19       71.89       71.59       71.28       70.96       70.64       70.32       70.00    
   2    70.00       70.61       71.20       71.77       72.31       72.83       73.31       73.75       74.16       74.54    
        74.87       75.16       75.41       75.62       75.80       75.93       76.04       76.11       76.16       76.19    
        76.19       76.16       76.12       76.05       75.96       75.86       75.74       75.60       75.45       75.29    
        75.11       74.92       74.72       74.51       74.29       74.06       73.82       73.57       73.31       73.04    
        72.77       72.48       72.19       71.89       71.59       71.28       70.97       70.65       70.32       70.00    
   3    70.00       70.62       71.22       71.80       72.35       72.87       73.36       73.81       74.22       74.60    
        74.93       75.22       75.47       75.69       75.86       75.99       76.09       76.17       76.22       76.24    
        76.23       76.21       76.16       76.09       76.00       75.89       75.77       75.63       75.48       75.31    
        75.14       74.95       74.75       74.53       74.31       74.08       73.84       73.59       73.33       73.06    
        72.78       72.50       72.20       71.90       71.60       71.29       70.97       70.65       70.33       70.00    
   4    70.00       70.63       71.25       71.84       72.41       72.94       73.44       73.89       74.31       74.69    
        75.03       75.32       75.57       75.78       75.95       76.08       76.18       76.25       76.29       76.31    
        76.30       76.27       76.22       76.14       76.05       75.94       75.82       75.67       75.52       75.35    
        75.17       74.98       74.78       74.56       74.34       74.11       73.86       73.61       73.35       73.08    
        72.80       72.51       72.22       71.92       71.61       71.30       70.98       70.66       70.33       70.00    
   5    70.00       70.66       71.29       71.90       72.48       73.03       73.54       74.01       74.43       74.82    
        75.16       75.45       75.70       75.91       76.07       76.20       76.30       76.36       76.40       76.41    
        76.39       76.36       76.30       76.22       76.12       76.01       75.88       75.73       75.57       75.40    
        75.22       75.02       74.82       74.60       74.38       74.14       73.90       73.64       73.38       73.11    
        72.83       72.54       72.24       71.94       71.63       71.31       70.99       70.66       70.33       70.00    
   6    70.00       70.68       71.34       71.98       72.58       73.15       73.67       74.16       74.59       74.98    
        75.32       75.62       75.86       76.07       76.23       76.35       76.44       76.50       76.53       76.53    
        76.51       76.47       76.40       76.31       76.21       76.09       75.95       75.80       75.64       75.46    
        75.27       75.08       74.87       74.65       74.42       74.19       73.94       73.68       73.42       73.14    
        72.86       72.57       72.27       71.96       71.65       71.33       71.00       70.67       70.34       70.00    
   7    70.00       70.72       71.41       72.08       72.71       73.30       73.84       74.34       74.79       75.18    
        75.53       75.82       76.07       76.27       76.42       76.54       76.62       76.67       76.69       76.68    
        76.65       76.59       76.52       76.42       76.31       76.18       76.04       75.88       75.71       75.53    
        75.34       75.14       74.93       74.71       74.48       74.24       73.99       73.73       73.46       73.19    
        72.90       72.61       72.31       72.00       71.68       71.35       71.02       70.68       70.34       70.00    
   8    70.00       70.76       71.50       72.20       72.86       73.48       74.05       74.56       75.02       75.42    
        75.77       76.07       76.31       76.50       76.65       76.75       76.82       76.86       76.87       76.85    
        76.81       76.75       76.66       76.55       76.43       76.29       76.14       75.98       75.80       75.61    
        75.42       75.21       75.00       74.77       74.54       74.30       74.05       73.79       73.52       73.24    
        72.95       72.66       72.35       72.03       71.71       71.38       71.04       70.70       70.35       70.00    
   9    70.00       70.81       71.60       72.34       73.05       73.70       74.29       74.83       75.30       75.71    
        76.06       76.35       76.59       76.77       76.91       77.00       77.06       77.09       77.08       77.05    
        77.00       76.92       76.82       76.70       76.56       76.41       76.25       76.08       75.90       75.70    
        75.50       75.29       75.07       74.85       74.61       74.37       74.12       73.85       73.58       73.30    
        73.01       72.71       72.40       72.08       71.75       71.41       71.07       70.72       70.36       70.00    
  10    70.00       70.88       71.72       72.52       73.27       73.96       74.59       75.15       75.64       76.05    
        76.40       76.69       76.91       77.08       77.20       77.28       77.33       77.34       77.32       77.28    
        77.20       77.11       76.99       76.86       76.71       76.55       76.38       76.19       76.00       75.80    
        75.60       75.38       75.16       74.93       74.69       74.45       74.19       73.93       73.65       73.37    
        73.08       72.77       72.46       72.13       71.80       71.45       71.10       70.74       70.37       70.00    
  11    70.00       70.95       71.87       72.73       73.54       74.28       74.94       75.52       76.03       76.45    
        76.80       77.08       77.28       77.43       77.52       77.59       77.63       77.63       77.59       77.53    
        77.43       77.32       77.18       77.03       76.87       76.69       76.51       76.32       76.12       75.91    
        75.70       75.48       75.25       75.02       74.78       74.53       74.27       74.01       73.73       73.45    
        73.15       72.84       72.52       72.19       71.85       71.50       71.13       70.76       70.38       70.00    
  12    70.00       71.04       72.05       72.99       73.86       74.65       75.35       75.97       76.49       76.92    
        77.26       77.53       77.71       77.82       77.86       77.94       77.96       77.95       77.89       77.80    
        77.68       77.55       77.39       77.22       77.04       76.85       76.65       76.45       76.24       76.02    
        75.80       75.58       75.35       75.11       74.87       74.62       74.37       74.10       73.82       73.54    
        73.24       72.92       72.60       72.26       71.91       71.55       71.17       70.79       70.40       70.00    
  13    70.00       71.16       72.26       73.30       74.25       75.10       75.84       76.49       77.02       77.46    
        77.80       78.04       78.20       78.26       78.17       78.32       78.34       78.30       78.22       78.10    
        77.96       77.79       77.61       77.42       77.22       77.01       76.80       76.58       76.36       76.14    
        75.91       75.68       75.45       75.22       74.97       74.72       74.47       74.20       73.92       73.63    
        73.33       73.02       72.69       72.34       71.99       71.61       71.22       70.82       70.41       70.00    
  14    70.00       71.30       72.53       73.67       74.71       75.63       76.42       77.09       77.64       78.08    
        78.41       78.64       78.78       78.83       78.82       78.83       78.79       78.70       78.58       78.42    
        78.25       78.05       77.84       77.62       77.40       77.17       76.94       76.71       76.49       76.26    
        76.03       75.79       75.56       75.32       75.08       74.83       74.57       74.31       74.03       73.74    
        73.44       73.12       72.79       72.44       72.07       71.69       71.28       70.86       70.44       70.00    
  15    70.00       71.47       72.85       74.13       75.27       76.26       77.11       77.81       78.36       78.80    
        79.11       79.32       79.43       79.46       79.44       79.37       79.27       79.14       78.97       78.77    
        78.55       78.32       78.08       77.83       77.59       77.34       77.09       76.85       76.61       76.37    
        76.14       75.90       75.67       75.43       75.19       74.94       74.69       74.42       74.15       73.86    
        73.56       73.24       72.91       72.55       72.17       71.77       71.35       70.92       70.46       70.00    
  16    70.00       71.68       73.26       74.69       75.95       77.02       77.92       78.64       79.20       79.61    
        79.90       80.07       80.15       80.14       80.07       79.95       79.80       79.60       79.38       79.13    
        78.87       78.60       78.32       78.04       77.77       77.50       77.24       76.98       76.73       76.49    
        76.25       76.02       75.78       75.54       75.31       75.06       74.81       74.55       74.28       74.00    
        73.70       73.38       73.04       72.68       72.29       71.88       71.44       70.98       70.49       70.00    
  17    70.00       71.95       73.76       75.38       76.78       77.94       78.88       79.61       80.16       80.54    
        80.79       80.91       80.94       80.88       80.75       80.57       80.35       80.09       79.81       79.51    
        79.20       78.88       78.56       78.25       77.95       77.65       77.37       77.10       76.85       76.60    
        76.36       76.12       75.89       75.66       75.43       75.19       74.94       74.69       74.42       74.15    
        73.85       73.54       73.20       72.84       72.44       72.01       71.55       71.05       70.54       70.00    
  18    70.00       72.30       74.41       76.25       77.80       79.04       80.01       80.74       81.25       81.59    
        81.77       81.83       81.79       81.66       81.47       81.22       80.93       80.61       80.26       79.90    
        79.53       79.16       78.80       78.45       78.11       77.79       77.49       77.21       76.95       76.70    
        76.46       76.23       76.00       75.78       75.55       75.32       75.08       74.83       74.58       74.31    
        74.03       73.72       73.38       73.02       72.61       72.17       71.68       71.15       70.59       70.00    
  19    70.00       72.78       75.26       77.37       79.07       80.38       81.36       82.05       82.50       82.76    
        82.87       82.84       82.72       82.51       82.23       81.90       81.53       81.14       80.72       80.29    
        79.86       79.43       79.02       78.62       78.25       77.91       77.60       77.31       77.04       76.79    
        76.56       76.33       76.11       75.89       75.67       75.45       75.23       74.99       74.75       74.49    
        74.22       73.92       73.60       73.23       72.83       72.37       71.86       71.28       70.66       70.00    
  20    70.00       73.43       76.40       78.81       80.66       82.01       82.95       83.56       83.92       84.07    
        84.07       83.94       83.71       83.40       83.03       82.61       82.16       81.68       81.19       80.69    
        80.18       79.69       79.22       78.77       78.37       78.00       77.67       77.38       77.11       76.87    
        76.64       76.43       76.22       76.01       75.80       75.59       75.38       75.15       74.92       74.69    
        74.43       74.15       73.84       73.49       73.09       72.62       72.08       71.46       70.76       70.00    
  21    70.00       74.37       77.98       80.72       82.67       83.98       84.82       85.29       85.50       85.51    
        85.37       85.11       84.76       84.34       83.86       83.34       82.80       82.23       81.66       81.08    
        80.49       79.92       79.38       78.88       78.44       78.05       77.71       77.42       77.16       76.93    
        76.71       76.51       76.32       76.13       75.93       75.74       75.54       75.33       75.10       74.90    
        74.67       74.42       74.13       73.80       73.41       72.95       72.39       71.71       70.91       70.00    
  22    70.00       75.81       80.25       83.28       85.20       86.36       86.98       87.24       87.25       87.07    
        86.76       86.35       85.86       85.31       84.72       84.09       83.45       82.79       82.12       81.45    
        80.78       80.12       79.51       78.94       78.45       78.04       77.70       77.43       77.19       76.97    
        76.78       76.59       76.41       76.24       76.07       75.89       75.71       75.51       75.27       75.12    
        74.93       74.71       74.45       74.16       73.80       73.36       72.80       72.08       71.14       70.00    
  23    70.00       78.20       83.65       86.74       88.38       89.17       89.44       89.39       89.13       88.73    
        88.22       87.63       86.99       86.31       85.60       84.85       84.10       83.34       82.57       81.80    
        81.03       80.28       79.57       78.92       78.37       77.95       77.64       77.39       77.18       76.99    
        76.82       76.66       76.51       76.35       76.20       76.05       75.89       75.72       75.55       75.39    
        75.22       75.03       74.82       74.57       74.27       73.89       73.38       72.65       71.56       70.00    
  24    70.00       82.50       88.92       91.39       92.25       92.38       92.14       91.69       91.11       90.44    
        89.72       88.95       88.15       87.32       86.48       85.62       84.75       83.88       83.00       82.13    
        81.26       80.40       79.57       78.80       78.14       77.77       77.52       77.32       77.15       77.00    
        76.86       76.73       76.60       76.47       76.34       76.21       76.08       75.94       75.81       75.67    
        75.53       75.38       75.22       75.03       74.81       74.54       74.16       73.56       72.43       70.00    
  25    70.00       91.04       97.35       97.32       96.66       95.85       94.97       94.06       93.13       92.18    
        91.23       90.27       89.30       88.33       87.35       86.37       85.39       84.41       83.43       82.45    
        81.47       80.49       79.51       78.54       77.63       77.46       77.33       77.22       77.11       77.00    
        76.90       76.79       76.69       76.58       76.48       76.38       76.27       76.17       76.06       75.96    
        75.85       75.75       75.64       75.53       75.41       75.29       75.15       74.97       74.51       70.00    
  26    70.00       82.51       88.92       91.40       92.25       92.38       92.14       91.69       91.11       90.45    
        89.72       88.95       88.15       87.32       86.48       85.62       84.75       83.88       83.00       82.13    
        81.26       80.40       79.57       78.80       78.14       77.77       77.51       77.32       77.15       77.00    
        76.86       76.73       76.60       76.47       76.34       76.22       76.09       75.96       75.82       75.69    
        75.54       75.39       75.22       75.03       74.81       74.54       74.16       73.56       72.43       70.00    
  27    70.00       78.20       83.65       86.75       88.39       89.17       89.45       89.40       89.14       88.73    
        88.23       87.64       87.00       86.32       85.60       84.86       84.10       83.33       82.56       81.79    
        81.03       80.28       79.57       78.92       78.37       77.95       77.64       77.39       77.18       76.99    
        76.82       76.66       76.51       76.36       76.21       76.06       75.91       75.75       75.59       75.42    
        75.24       75.04       74.82       74.57       74.27       73.89       73.38       72.65       71.56       70.00    
  28    70.00       75.81       80.26       83.28       85.21       86.36       86.99       87.25       87.26       87.08    
        86.77       86.36       85.87       85.33       84.73       84.10       83.45       82.79       82.11       81.44    
        80.77       80.12       79.51       78.94       78.44       78.04       77.70       77.42       77.18       76.97    
        76.77       76.59       76.41       76.24       76.07       75.90       75.73       75.55       75.37       75.17    
        74.96       74.72       74.46       74.16       73.80       73.36       72.80       72.08       71.14       70.00    
  29    70.00       74.37       77.99       80.73       82.67       83.99       84.83       85.30       85.52       85.53    
        85.39       85.13       84.78       84.36       83.88       83.36       82.81       82.24       81.65       81.07    
        80.49       79.92       79.38       78.88       78.43       78.04       77.71       77.41       77.16       76.92    
        76.71       76.51       76.32       76.13       75.94       75.75       75.56       75.36       75.15       74.93    
        74.69       74.43       74.14       73.80       73.41       72.95       72.39       71.71       70.90       70.00    
  30    70.00       73.43       76.41       78.82       80.67       82.02       82.96       83.58       83.94       84.09    
        84.09       83.96       83.74       83.43       83.06       82.63       82.18       81.69       81.19       80.69    
        80.19       79.69       79.22       78.77       78.36       77.99       77.66       77.37       77.11       76.86    
        76.64       76.42       76.21       76.01       75.81       75.60       75.39       75.18       74.95       74.71    
        74.45       74.17       73.85       73.50       73.09       72.62       72.08       71.46       70.76       70.00    
  31    70.00       72.78       75.27       77.38       79.08       80.39       81.37       82.07       82.53       82.79    
        82.90       82.88       82.75       82.54       82.27       81.93       81.56       81.16       80.74       80.30    
        79.87       79.44       79.02       78.62       78.25       77.90       77.59       77.30       77.03       76.78    
        76.55       76.32       76.10       75.89       75.67       75.46       75.23       75.00       74.76       74.50    
        74.23       73.93       73.60       73.24       72.83       72.37       71.86       71.28       70.66       70.00    
  32    70.00       72.31       74.42       76.26       77.81       79.06       80.03       80.76       81.28       81.62    
        81.81       81.88       81.84       81.71       81.52       81.26       80.97       80.64       80.29       79.92    
        79.54       79.17       78.80       78.44       78.10       77.78       77.48       77.20       76.94       76.69    
        76.45       76.22       75.99       75.77       75.54       75.32       75.08       74.84       74.59       74.32    
        74.03       73.72       73.39       73.02       72.61       72.17       71.68       71.15       70.59       70.00    
  33    70.00       71.95       73.77       75.39       76.79       77.95       78.90       79.63       80.19       80.58    
        80.83       80.96       81.00       80.94       80.82       80.63       80.40       80.14       79.84       79.54    
        79.22       78.89       78.57       78.25       77.94       77.64       77.36       77.09       76.83       76.58    
        76.34       76.11       75.88       75.65       75.42       75.18       74.94       74.69       74.42       74.15    
        73.85       73.54       73.20       72.83       72.44       72.01       71.55       71.05       70.53       70.00    
  34    70.00       71.68       73.26       74.70       75.96       77.04       77.94       78.67       79.23       79.65    
        79.95       80.14       80.22       80.23       80.16       80.04       79.86       79.66       79.42       79.16    
        78.89       78.61       78.32       78.04       77.76       77.49       77.22       76.96       76.71       76.47    
        76.23       76.00       75.76       75.53       75.29       75.05       74.80       74.54       74.27       73.99    
        73.69       73.38       73.04       72.68       72.29       71.88       71.44       70.97       70.49       70.00    
  35    70.00       71.47       72.86       74.14       75.28       76.28       77.13       77.83       78.40       78.84    
        79.17       79.39       79.52       79.57       79.56       79.48       79.36       79.20       79.01       78.80    
        78.57       78.33       78.08       77.83       77.57       77.32       77.07       76.83       76.59       76.35    
        76.11       75.88       75.64       75.41       75.17       74.92       74.67       74.41       74.14       73.85    
        73.55       73.23       72.90       72.54       72.17       71.77       71.35       70.91       70.46       70.00    
  36    70.00       71.30       72.53       73.68       74.72       75.64       76.44       77.12       77.68       78.13    
        78.47       78.72       78.89       78.98       79.00       78.97       78.89       78.77       78.63       78.45    
        78.26       78.05       77.84       77.61       77.38       77.15       76.92       76.69       76.46       76.23    
        75.99       75.76       75.53       75.29       75.05       74.80       74.55       74.29       74.01       73.72    
        73.42       73.11       72.78       72.43       72.06       71.68       71.28       70.86       70.43       70.00    
  37    70.00       71.16       72.27       73.30       74.26       75.11       75.86       76.51       77.05       77.50    
        77.86       78.13       78.32       78.44       78.50       78.50       78.45       78.37       78.26       78.12    
        77.97       77.79       77.60       77.40       77.19       76.98       76.76       76.54       76.32       76.10    
        75.88       75.65       75.42       75.18       74.94       74.69       74.44       74.17       73.90       73.61    
        73.31       73.00       72.67       72.33       71.97       71.60       71.22       70.82       70.41       70.00    
  38    70.00       71.04       72.05       72.99       73.87       74.66       75.37       75.98       76.51       76.95    
        77.31       77.60       77.81       77.95       78.04       78.07       78.05       78.00       77.92       77.82    
        77.69       77.54       77.37       77.19       77.01       76.81       76.61       76.40       76.19       75.98    
        75.76       75.54       75.31       75.07       74.83       74.59       74.33       74.07       73.79       73.51    
        73.21       72.90       72.58       72.25       71.90       71.54       71.16       70.78       70.39       70.00    
  39    70.00       70.95       71.87       72.73       73.54       74.28       74.94       75.53       76.04       76.48    
        76.84       77.13       77.35       77.52       77.62       77.68       77.69       77.67       77.61       77.53    
        77.42       77.30       77.15       77.00       76.83       76.65       76.46       76.27       76.07       75.86    
        75.65       75.43       75.20       74.97       74.73       74.49       74.23       73.97       73.70       73.41    
        73.12       72.82       72.50       72.17       71.83       71.48       71.12       70.75       70.38       70.00    
  40    70.00       70.87       71.72       72.52       73.27       73.96       74.59       75.15       75.64       76.07    
        76.42       76.72       76.95       77.13       77.25       77.32       77.36       77.36       77.32       77.26    
        77.18       77.07       76.95       76.81       76.66       76.49       76.32       76.14       75.94       75.74    
        75.54       75.32       75.10       74.87       74.64       74.40       74.14       73.88       73.61       73.33    
        73.04       72.74       72.43       72.11       71.78       71.43       71.08       70.73       70.37       70.00    
  41    70.00       70.81       71.59       72.34       73.04       73.69       74.28       74.82       75.29       75.71    
        76.06       76.36       76.60       76.79       76.92       77.01       77.06       77.08       77.06       77.02    
        76.96       76.87       76.76       76.64       76.50       76.35       76.18       76.01       75.83       75.64    
        75.44       75.23       75.01       74.79       74.55       74.31       74.06       73.80       73.53       73.26    
        72.97       72.67       72.37       72.05       71.73       71.39       71.05       70.71       70.36       70.00    
  42    70.00       70.75       71.48       72.18       72.84       73.46       74.02       74.54       75.00       75.40    
        75.75       76.05       76.29       76.49       76.63       76.73       76.80       76.83       76.83       76.81    
        76.75       76.68       76.59       76.48       76.35       76.21       76.06       75.90       75.72       75.54    
        75.34       75.14       74.92       74.70       74.47       74.24       73.99       73.73       73.47       73.19    
        72.91       72.62       72.31       72.00       71.69       71.36       71.03       70.69       70.35       70.00    
  43    70.00       70.71       71.40       72.06       72.68       73.27       73.81       74.30       74.74       75.14    
        75.48       75.78       76.03       76.22       76.38       76.49       76.56       76.61       76.62       76.61    
        76.57       76.52       76.44       76.34       76.22       76.09       75.95       75.79       75.62       75.44    
        75.25       75.06       74.85       74.63       74.40       74.17       73.92       73.67       73.41       73.13    
        72.85       72.57       72.27       71.96       71.65       71.33       71.00       70.67       70.34       70.00    
  44    70.00       70.67       71.33       71.95       72.55       73.11       73.62       74.10       74.53       74.92    
        75.26       75.55       75.80       76.00       76.16       76.28       76.36       76.42       76.44       76.44    
        76.42       76.37       76.30       76.21       76.10       75.98       75.85       75.70       75.54       75.36    
        75.18       74.98       74.78       74.56       74.34       74.11       73.86       73.61       73.35       73.08    
        72.81       72.52       72.23       71.93       71.62       71.30       70.98       70.66       70.33       70.00    
  45    70.00       70.64       71.27       71.87       72.44       72.97       73.48       73.94       74.36       74.74    
        75.07       75.36       75.61       75.81       75.98       76.10       76.19       76.26       76.29       76.30    
        76.28       76.24       76.18       76.10       76.00       75.89       75.76       75.62       75.46       75.29    
        75.11       74.92       74.72       74.51       74.29       74.05       73.81       73.57       73.31       73.04    
        72.77       72.49       72.19       71.90       71.59       71.28       70.97       70.65       70.33       70.00    
  46    70.00       70.62       71.22       71.80       72.35       72.87       73.36       73.80       74.22       74.59    
        74.92       75.21       75.45       75.66       75.83       75.96       76.05       76.12       76.16       76.18    
        76.17       76.14       76.08       76.01       75.92       75.81       75.69       75.55       75.39       75.23    
        75.05       74.87       74.67       74.46       74.24       74.01       73.77       73.53       73.27       73.01    
        72.73       72.46       72.17       71.87       71.57       71.27       70.96       70.64       70.32       70.00    
  47    70.00       70.60       71.18       71.74       72.28       72.79       73.26       73.70       74.11       74.47    
        74.80       75.08       75.33       75.54       75.71       75.84       75.94       76.01       76.06       76.08    
        76.08       76.05       76.00       75.93       75.85       75.74       75.63       75.49       75.34       75.18    
        75.01       74.82       74.63       74.42       74.20       73.98       73.74       73.50       73.24       72.98    
        72.71       72.43       72.15       71.85       71.56       71.25       70.95       70.63       70.32       70.00    
  48    70.00       70.59       71.16       71.71       72.23       72.73       73.19       73.63       74.02       74.38    
        74.71       74.99       75.24       75.45       75.62       75.75       75.86       75.93       75.98       76.01    
        76.01       75.99       75.94       75.88       75.80       75.70       75.58       75.45       75.30       75.14    
        74.97       74.79       74.60       74.39       74.18       73.95       73.72       73.47       73.22       72.96    
        72.69       72.41       72.13       71.84       71.54       71.24       70.94       70.63       70.32       70.00    
  49    70.00       70.58       71.14       71.68       72.20       72.69       73.15       73.58       73.97       74.33    
        74.65       74.93       75.18       75.39       75.56       75.70       75.80       75.88       75.93       75.96    
        75.96       75.94       75.90       75.84       75.76       75.66       75.55       75.42       75.28       75.12    
        74.95       74.77       74.58       74.37       74.16       73.93       73.70       73.46       73.20       72.94    
        72.68       72.40       72.12       71.83       71.54       71.24       70.93       70.62       70.31       70.00    
  50    70.00       70.57       71.13       71.67       72.18       72.67       73.13       73.55       73.94       74.30    
        74.62       74.90       75.15       75.36       75.53       75.67       75.78       75.86       75.91       75.94    
        75.94       75.92       75.88       75.82       75.74       75.65       75.53       75.41       75.26       75.11    
        74.94       74.76       74.56       74.36       74.15       73.92       73.69       73.45       73.20       72.94    
        72.67       72.40       72.11       71.83       71.53       71.23       70.93       70.62       70.31       70.00    
1
              HEAD IN LAYER   2 AT END OF TIME STEP   1 IN STRESS PERIOD    1
  ---------------------------------------------------------------------------

            1           2           3           4           5           6           7           8           9          10
           11          12          13          14          15          16          17          18          19          20
           21          22          23          24          25          26          27          28          29          30
           31          32          33          34          35          36          37          38          39          40
           41          42          43          44          45          46          47          48          49          50
 ........................................................................................................................
   1    70.00       70.60       71.19       71.75       72.29       72.81       73.28       73.73       74.14       74.50    
        74.84       75.13       75.38       75.59       75.77       75.90       76.01       76.09       76.14       76.16    
        76.16       76.14       76.09       76.03       75.94       75.84       75.72       75.59       75.44       75.28    
        75.10       74.91       74.71       74.50       74.28       74.05       73.81       73.56       73.30       73.04    
        72.76       72.48       72.19       71.89       71.59       71.28       70.96       70.64       70.32       70.00    
   2    70.00       70.61       71.20       71.77       72.31       72.83       73.31       73.75       74.16       74.54    
        74.87       75.16       75.41       75.62       75.80       75.93       76.04       76.11       76.16       76.19    
        76.19       76.16       76.12       76.05       75.96       75.86       75.74       75.60       75.45       75.29    
        75.11       74.92       74.72       74.51       74.29       74.06       73.82       73.57       73.31       73.04    
        72.77       72.48       72.19       71.89       71.59       71.28       70.97       70.65       70.32       70.00    
   3    70.00       70.62       71.22       71.80       72.35       72.87       73.36       73.81       74.22       74.60    
        74.93       75.22       75.47       75.69       75.86       75.99       76.09       76.17       76.22       76.24    
        76.23       76.21       76.16       76.09       76.00       75.89       75.77       75.63       75.48       75.31    
        75.14       74.95       74.75       74.53       74.31       74.08       73.84       73.59       73.33       73.06    
        72.78       72.50       72.20       71.90       71.60       71.29       70.97       70.65       70.33       70.00    
   4    70.00       70.63       71.25       71.84       72.41       72.94       73.44       73.89       74.31       74.69    
        75.03       75.32       75.57       75.78       75.95       76.08       76.18       76.25       76.29       76.31    
        76.30       76.27       76.22       76.14       76.05       75.94       75.82       75.67       75.52       75.35    
        75.17       74.98       74.78       74.56       74.34       74.11       73.86       73.61       73.35       73.08    
        72.80       72.51       72.22       71.92       71.61       71.30       70.98       70.66       70.33       70.00    
   5    70.00       70.66       71.29       71.90       72.48       73.03       73.54       74.01       74.43       74.82    
        75.16       75.45       75.70       75.91       76.07       76.20       76.30       76.36       76.40       76.41    
        76.39       76.36       76.30       76.22       76.12       76.01       75.88       75.73       75.57       75.40    
        75.22       75.02       74.82       74.60       74.38       74.14       73.90       73.64       73.38       73.11    
        72.83       72.54       72.24       71.94       71.63       71.31       70.99       70.66       70.33       70.00    
   6    70.00       70.68       71.34       71.98       72.58       73.15       73.67       74.16       74.59       74.98    
        75.32       75.62       75.86       76.07       76.23       76.35       76.44       76.50       76.53       76.53    
        76.51       76.47       76.40       76.31       76.21       76.09       75.95       75.80       75.64       75.46    
        75.27       75.08       74.87       74.65       74.42       74.19       73.94       73.68       73.42       73.14    
        72.86       72.57       72.27       71.96       71.65       71.33       71.00       70.67       70.34       70.00    
   7    70.00       70.72       71.41       72.08       72.71       73.30       73.84       74.34       74.79       75.18    
        75.53       75.82       76.07       76.27       76.42       76.54       76.62       76.67       76.69       76.68    
        76.65       76.59       76.52       76.42       76.31       76.18       76.04       75.88       75.71       75.53    
        75.34       75.14       74.93       74.71       74.48       74.24       73.99       73.73       73.46       73.19    
        72.90       72.61       72.31       72.00       71.68       71.35       71.02       70.68       70.34       70.00    
   8    70.00       70.76       71.50       72.20       72.86       73.48       74.05       74.56       75.02       75.42    
        75.77       76.07       76.31       76.50       76.65       76.75       76.82       76.86       76.87       76.85    
        76.81       76.75       76.66       76.55       76.43       76.29       76.14       75.98       75.80       75.61    
        75.42       75.21       75.00       74.77       74.54       74.30       74.05       73.79       73.52       73.24    
        72.95       72.66       72.35       72.03       71.71       71.38       71.04       70.70       70.35       70.00    
   9    70.00       70.81       71.60       72.34       73.05       73.70       74.29       74.83       75.30       75.71    
        76.06       76.35       76.59       76.77       76.91       77.00       77.06       77.09       77.08       77.05    
        77.00       76.92       76.82       76.70       76.56       76.41       76.25       76.08       75.90       75.70    
        75.50       75.29       75.07       74.85       74.61       74.37       74.12       73.85       73.58       73.30    
        73.01       72.71       72.40       72.08       71.75       71.41       71.07       70.72       70.36       70.00    
  10    70.00       70.88       71.72       72.52       73.27       73.96       74.59       75.15       75.64       76.05    
        76.40       76.69       76.91       77.08       77.20       77.28       77.33       77.34       77.32       77.28    
        77.20       77.11       76.99       76.86       76.71       76.55       76.38       76.19       76.00       75.80    
        75.60       75.38       75.16       74.93       74.69       74.45       74.19       73.93       73.65       73.37    
        73.08       72.77       72.46       72.13       71.80       71.45       71.10       70.74       70.37       70.00    
  11    70.00       70.95       71.87       72.73       73.54       74.28       74.94       75.52       76.03       76.45    
        76.80       77.08       77.28       77.43       77.52       77.59       77.63       77.63       77.59       77.53    
        77.43       77.32       77.18       77.03       76.87       76.69       76.51       76.32       76.12       75.91    
        75.70       75.48       75.25       75.02       74.78       74.53       74.27       74.01       73.73       73.45    
        73.15       72.84       72.52       72.19       71.85       71.50       71.13       70.76       70.38       70.00    
  12    70.00       71.04       72.05       72.99       73.86       74.65       75.35       75.97       76.49       76.92    
        77.26       77.53       77.71       77.82       77.86       77.94       77.96       77.95       77.89       77.80    
        77.68       77.55       77.39       77.22       77.04       76.85       76.65       76.45       76.24       76.02    
        75.80       75.58       75.35       75.11       74.87       74.62       74.37       74.10       73.82       73.54    
        73.24       72.92       72.60       72.26       71.91       71.55       71.17       70.79       70.40       70.00    
  13    70.00       71.16       72.26       73.30       74.25       75.10       75.84       76.49       77.02       77.46    
        77.80       78.04       78.20       78.26       78.17       78.32       78.34       78.30       78.22       78.10    
        77.96       77.79       77.61       77.42       77.22       77.01       76.80       76.58       76.36       76.14    
        75.91       75.68       75.45       75.22       74.97       74.72       74.47       74.20       73.92       73.63    
        73.33       73.02       72.69       72.34       71.99       71.61       71.22       70.82       70.41       70.00    
  14    70.00       71.30       72.53       73.67       74.71       75.63       76.42       77.09       77.64       78.08    
        78.41       78.64       78.78       78.83       78.82       78.83       78.79       78.70       78.58       78.42    
        78.25       78.05       77.84       77.62       77.40       77.17       76.94       76.71       76.49       76.26    
        76.03       75.79       75.56       75.32       75.08       74.83       74.57       74.31       74.03       73.74    
        73.44       73.12       72.79       72.44       72.07       71.69       71.28       70.86       70.44       70.00    
  15    70.00       71.47       72.85       74.13       75.27       76.26       77.11       77.81       78.36       78.80    
        79.11       79.32       79.43       79.46       79.44       79.37       79.27       79.14       78.97       78.77    
        78.55       78.32       78.08       77.83       77.59       77.34       77.09       76.85       76.61       76.37    
        76.14       75.90       75.67       75.43       75.19       74.94       74.69       74.42       74.15       73.86    
        73.56       73.24       72.91       72.55       72.17       71.77       71.35       70.92       70.46       70.00    
  16    70.00       71.68       73.26       74.69       75.95       77.02       77.92       78.64       79.20       79.61    
        79.90       80.07       80.15       80.14       80.07       79.95       79.80       79.60       79.38       79.13    
        78.87       78.60       78.32       78.04       77.77       77.50       77.24       76.98       76.73       76.49    
        76.25       76.02       75.78       75.54       75.31       75.06       74.81       74.55       74.28       74.00    
        73.70       73.38       73.04       72.68       72.29       71.88       71.44       70.98       70.49       70.00    
  17    70.00       71.95       73.76       75.38       76.78       77.94       78.88       79.61       80.16       80.54    
        80.79       80.91       80.94       80.88       80.75       80.57       80.35       80.09       79.81       79.51    
        79.20       78.88       78.56       78.25       77.95       77.65       77.37       77.10       76.85       76.60    
        76.36       76.12       75.89       75.66       75.43       75.19       74.94       74.69       74.42       74.15    
        73.85       73.54       73.20       72.84       72.44       72.01       71.55       71.05       70.54       70.00    
  18    70.00       72.30       74.41       76.25       77.80       79.04       80.01       80.74       81.25       81.59    
        81.77       81.83       81.79       81.66       81.47       81.22       80.93       80.61       80.26       79.90    
        79.53       79.16       78.80       78.45       78.11       77.79       77.49       77.21       76.95       76.70    
        76.46       76.23       76.00       75.78       75.55       75.32       75.08       74.83       74.58       74.31    
        74.03       73.72       73.38       73.02       72.61       72.17       71.68       71.15       70.59       70.00    
  19    70.00       72.78       75.26       77.37       79.07       80.38       81.36       82.05       82.50       82.76    
        82.87       82.84       82.72       82.51       82.23       81.90       81.53       81.14       80.72       80.29    
        79.86       79.43       79.02       78.62       78.25       77.91       77.60       77.31       77.04       76.79    
        76.56       76.33       76.11       75.89       75.67       75.45       75.23       74.99       74.75       74.49    
        74.22       73.92       73.60       73.23       72.83       72.37       71.86       71.28       70.66       70.00    
  20    70.00       73.43       76.40       78.81       80.66       82.01       82.95       83.56       83.92       84.07    
        84.07       83.94       83.71       83.40       83.03       82.61       82.16       81.68       81.19       80.69    
        80.18       79.69       79.22       78.77       78.37       78.00       77.67       77.38       77.11       76.87    
        76.64       76.43       76.22       76.01       75.80       75.59       75.38       75.15       74.92       74.69    
        74.43       74.15       73.84       73.49       73.09       72.62       72.08       71.46       70.76       70.00    
  21    70.00       74.37       77.98       80.72       82.67       83.98       84.82       85.29       85.50       85.51    
        85.37       85.11       84.76       84.34       83.86       83.34       82.80       82.23       81.66       81.08    
        80.49       79.92       79.38       78.88       78.44       78.05       77.71       77.42       77.16       76.93    
        76.71       76.51       76.32       76.13       75.93       75.74       75.54       75.33       75.10       74.90    
        74.67       74.42       74.13       73.80       73.41       72.95       72.39       71.71       70.91       70.00    
  22    70.00       75.81       80.25       83.28       85.20       86.36       86.98       87.24       87.25       87.07    
        86.76       86.35       85.86       85.31       84.72       84.09       83.45       82.79       82.12       81.45    
        80.78       80.12       79.51       78.94       78.45       78.04       77.70       77.43       77.19       76.97    
        76.78       76.59       76.41       76.24       76.07       75.89       75.71       75.51       75.27       75.12    
        74.93       74.71       74.45       74.16       73.80       73.36       72.80       72.08       71.14       70.00    
  23    70.00       78.20       83.65       86.74       88.38       89.17       89.44       89.39       89.13       88.73    
        88.22       87.63       86.99       86.31       85.60       84.85       84.10       83.34       82.57       81.80    
        81.03       80.28       79.57       78.92       78.37       77.95       77.64       77.39       77.18       76.99    
        76.82       76.66       76.51       76.35       76.20       76.05       75.89       75.72       75.55       75.39    
        75.22       75.03       74.82       74.57       74.27       73.89       73.38       72.65       71.56       70.00    
  24    70.00       82.50       88.92       91.39       92.25       92.38       92.14       91.69       91.11       90.44    
        89.72       88.95       88.15       87.32       86.48       85.62       84.75       83.88       83.00       82.13    
        81.26       80.40       79.57       78.80       78.14       77.77       77.52       77.32       77.15       77.00    
        76.86       76.73       76.60       76.47       76.34       76.21       76.08       75.94       75.81       75.67    
        75.53       75.38       75.22       75.03       74.81       74.54       74.16       73.56       72.43       70.00    
  25    70.00       91.00       97.32       97.31       96.65       95.84       94.96       94.05       93.12       92.18    
        91.23       90.26       89.30       88.32       87.35       86.37       85.39       84.41       83.43       82.45    
        81.47       80.49       79.51       78.55       77.64       77.46       77.33       77.22       77.11       77.00    
        76.89       76.79       76.69       76.58       76.48       76.38       76.27       76.17       76.06       75.96    
        75.85       75.75       75.64       75.53       75.41       75.29       75.15       74.97       74.50       70.00    
  26    70.00       82.50       88.92       91.39       92.25       92.38       92.14       91.69       91.11       90.45    
        89.72       88.95       88.15       87.32       86.48       85.62       84.75       83.88       83.00       82.13    
        81.26       80.40       79.57       78.80       78.14       77.77       77.51       77.32       77.15       77.00    
        76.86       76.73       76.60       76.47       76.34       76.22       76.09       75.96       75.82       75.69    
        75.54       75.39       75.22       75.03       74.81       74.54       74.16       73.56       72.43       70.00    
  27    70.00       78.20       83.65       86.75       88.39       89.17       89.45       89.40       89.14       88.73    
        88.23       87.64       87.00       86.32       85.60       84.86       84.10       83.33       82.56       81.79    
        81.03       80.28       79.57       78.92       78.37       77.95       77.64       77.39       77.18       76.99    
        76.82       76.66       76.51       76.36       76.21       76.06       75.91       75.75       75.59       75.42    
        75.24       75.04       74.82       74.57       74.27       73.89       73.38       72.65       71.56       70.00    
  28    70.00       75.81       80.26       83.28       85.21       86.36       86.99       87.25       87.26       87.08    
        86.77       86.36       85.87       85.33       84.73       84.10       83.45       82.79       82.11       81.44    
        80.77       80.12       79.51       78.94       78.44       78.04       77.70       77.42       77.18       76.97    
        76.77       76.59       76.41       76.24       76.07       75.90       75.73       75.55       75.37       75.17    
        74.96       74.72       74.46       74.16       73.80       73.36       72.80       72.08       71.14       70.00    
  29    70.00       74.37       77.99       80.73       82.67       83.99       84.83       85.30       85.52       85.53    
        85.39       85.13       84.78       84.36       83.88       83.36       82.81       82.24       81.65       81.07    
        80.49       79.92       79.38       78.88       78.43       78.04       77.71       77.41       77.16       76.92    
        76.71       76.51       76.32       76.13       75.94       75.75       75.56       75.36       75.15       74.93    
        74.69       74.43       74.14       73.80       73.41       72.95       72.39       71.71       70.90       70.00    
  30    70.00       73.43       76.41       78.82       80.67       82.02       82.96       83.58       83.94       84.09    
        84.09       83.96       83.74       83.43       83.06       82.63       82.18       81.69       81.19       80.69    
        80.19       79.69       79.22       78.77       78.36       77.99       77.66       77.37       77.11       76.86    
        76.64       76.42       76.21       76.01       75.81       75.60       75.39       75.18       74.95       74.71    
        74.45       74.17       73.85       73.50       73.09       72.62       72.08       71.46       70.76       70.00    
  31    70.00       72.78       75.27       77.38       79.08       80.39       81.37       82.07       82.53       82.79    
        82.90       82.88       82.75       82.54       82.27       81.93       81.56       81.16       80.74       80.30    
        79.87       79.44       79.02       78.62       78.25       77.90       77.59       77.30       77.03       76.78    
        76.55       76.32       76.10       75.89       75.67       75.46       75.23       75.00       74.76       74.50    
        74.23       73.93       73.60       73.24       72.83       72.37       71.86       71.28       70.66       70.00    
  32    70.00       72.31       74.42       76.26       77.81       79.06       80.03       80.76       81.28       81.62    
        81.81       81.88       81.84       81.71       81.52       81.26       80.97       80.64       80.29       79.92    
        79.54       79.17       78.80       78.44       78.10       77.78       77.48       77.20       76.94       76.69    
        76.45       76.22       75.99       75.77       75.54       75.32       75.08       74.84       74.59       74.32    
        74.03       73.72       73.39       73.02       72.61       72.17       71.68       71.15       70.59       70.00    
  33    70.00       71.95       73.77       75.39       76.79       77.95       78.90       79.63       80.19       80.58    
        80.83       80.96       81.00       80.94       80.82       80.63       80.40       80.14       79.84       79.54    
        79.22       78.89       78.57       78.25       77.94       77.64       77.36       77.09       76.83       76.58    
        76.34       76.11       75.88       75.65       75.42       75.18       74.94       74.69       74.42       74.15    
        73.85       73.54       73.20       72.83       72.44       72.01       71.55       71.05       70.53       70.00    
  34    70.00       71.68       73.26       74.70       75.96       77.04       77.94       78.66       79.23       79.65    
        79.95       80.14       80.22       80.23       80.16       80.04       79.86       79.66       79.42       79.16    
        78.89       78.61       78.32       78.04       77.76       77.49       77.22       76.96       76.71       76.47    
        76.23       76.00       75.76       75.53       75.29       75.05       74.80       74.54       74.27       73.99    
        73.69       73.38       73.04       72.68       72.29       71.88       71.44       70.97       70.49       70.00    
  35    70.00       71.47       72.86       74.14       75.28       76.28       77.13       77.83       78.40       78.84    
        79.17       79.39       79.52       79.57       79.56       79.48       79.36       79.20       79.01       78.80    
        78.57       78.33       78.08       77.83       77.57       77.32       77.07       76.83       76.59       76.35    
        76.11       75.88       75.64       75.41       75.17       74.92       74.67       74.41       74.14       73.85    
        73.55       73.23       72.90       72.54       72.17       71.77       71.35       70.91       70.46       70.00    
  36    70.00       71.30       72.53       73.68       74.72       75.64       76.44       77.12       77.68       78.13    
        78.47       78.72       78.89       78.98       79.00       78.97       78.89       78.77       78.63       78.45    
        78.26       78.05       77.84       77.61       77.38       77.15       76.92       76.69       76.46       76.23    
        75.99       75.76       75.53       75.29       75.05       74.80       74.55       74.29       74.01       73.72    
        73.42       73.11       72.78       72.43       72.06       71.68       71.28       70.86       70.43       70.00    
  37    70.00       71.16       72.27       73.30       74.26       75.11       75.86       76.51       77.05       77.50    
        77.86       78.13       78.32       78.44       78.50       78.50       78.45       78.37       78.26       78.12    
        77.97       77.79       77.60       77.40       77.19       76.98       76.76       76.54       76.32       76.10    
        75.88       75.65       75.42       75.18       74.94       74.69       74.44       74.17       73.90       73.61    
        73.31       73.00       72.67       72.33       71.97       71.60       71.22       70.82       70.41       70.00    
  38    70.00       71.04       72.05       72.99       73.87       74.66       75.37       75.98       76.51       76.95    
        77.31       77.60       77.81       77.95       78.04       78.07       78.05       78.00       77.92       77.82    
        77.69       77.54       77.37       77.19       77.01       76.81       76.61       76.40       76.19       75.98    
        75.76       75.54       75.31       75.07       74.83       74.59       74.33       74.07       73.79       73.51    
        73.21       72.90       72.58       72.25       71.90       71.54       71.16       70.78       70.39       70.00    
  39    70.00       70.95       71.87       72.73       73.54       74.28       74.94       75.53       76.04       76.48    
        76.84       77.13       77.35       77.52       77.62       77.68       77.69       77.67       77.61       77.53    
        77.42       77.30       77.15       77.00       76.83       76.65       76.46       76.27       76.07       75.86    
        75.65       75.43       75.20       74.97       74.73       74.49       74.23       73.97       73.70       73.41    
        73.12       72.82       72.50       72.17       71.83       71.48       71.12       70.75       70.38       70.00    
  40    70.00       70.87       71.72       72.52       73.27       73.96       74.59       75.15       75.64       76.07    
        76.42       76.72       76.95       77.13       77.25       77.32       77.36       77.36       77.32       77.26    
        77.18       77.07       76.95       76.81       76.66       76.49       76.32       76.14       75.94       75.74    
        75.54       75.32       75.10       74.87       74.64       74.40       74.14       73.88       73.61       73.33    
        73.04       72.74       72.43       72.11       71.78       71.43       71.08       70.73       70.37       70.00    
  41    70.00       70.81       71.59       72.34       73.04       73.69       74.28       74.82       75.29       75.71    
        76.06       76.36       76.60       76.79       76.92       77.01       77.06       77.08       77.06       77.02    
        76.96       76.87       76.76       76.64       76.50       76.35       76.18       76.01       75.83       75.64    
        75.44       75.23       75.01       74.79       74.55       74.31       74.06       73.80       73.53       73.26    
        72.97       72.67       72.37       72.05       71.73       71.39       71.05       70.71       70.36       70.00    
  42    70.00       70.75       71.48       72.18       72.84       73.46       74.02       74.54       75.00       75.40    
        75.75       76.05       76.29       76.49       76.63       76.73       76.80       76.83       76.83       76.81    
        76.75       76.68       76.59       76.48       76.35       76.21       76.06       75.90       75.72       75.54    
        75.34       75.14       74.92       74.70       74.47       74.24       73.99       73.73       73.47       73.19    
        72.91       72.62       72.31       72.00       71.69       71.36       71.03       70.69       70.35       70.00    
  43    70.00       70.71       71.40       72.06       72.68       73.27       73.81       74.30       74.74       75.14    
        75.48       75.78       76.03       76.22       76.38       76.49       76.56       76.61       76.62       76.61    
        76.57       76.52       76.44       76.34       76.22       76.09       75.95       75.79       75.62       75.44    
        75.25       75.06       74.85       74.63       74.40       74.17       73.92       73.67       73.41       73.13    
        72.85       72.57       72.27       71.96       71.65       71.33       71.00       70.67       70.34       70.00    
  44    70.00       70.67       71.33       71.95       72.55       73.11       73.62       74.10       74.53       74.92    
        75.26       75.55       75.80       76.00       76.16       76.28       76.36       76.42       76.44       76.44    
        76.42       76.37       76.30       76.21       76.10       75.98       75.85       75.70       75.54       75.36    
        75.18       74.98       74.78       74.56       74.34       74.11       73.86       73.61       73.35       73.08    
        72.81       72.52       72.23       71.93       71.62       71.30       70.98       70.66       70.33       70.00    
  45    70.00       70.64       71.27       71.87       72.44       72.97       73.48       73.94       74.36       74.74    
        75.07       75.36       75.61       75.81       75.98       76.10       76.19       76.26       76.29       76.30    
        76.28       76.24       76.18       76.10       76.00       75.89       75.76       75.62       75.46       75.29    
        75.11       74.92       74.72       74.51       74.29       74.05       73.81       73.57       73.31       73.04    
        72.77       72.49       72.19       71.90       71.59       71.28       70.97       70.65       70.33       70.00    
  46    70.00       70.62       71.22       71.80       72.35       72.87       73.36       73.80       74.22       74.59    
        74.92       75.21       75.45       75.66       75.83       75.96       76.05       76.12       76.16       76.18    
        76.17       76.14       76.08       76.01       75.92       75.81       75.69       75.55       75.39       75.23    
        75.05       74.87       74.67       74.46       74.24       74.01       73.77       73.53       73.27       73.01    
        72.73       72.46       72.17       71.87       71.57       71.27       70.96       70.64       70.32       70.00    
  47    70.00       70.60       71.18       71.74       72.28       72.79       73.26       73.70       74.11       74.47    
        74.80       75.08       75.33       75.54       75.71       75.84       75.94       76.01       76.06       76.08    
        76.08       76.05       76.00       75.93       75.85       75.74       75.63       75.49       75.34       75.18    
        75.01       74.82       74.63       74.42       74.20       73.98       73.74       73.50       73.24       72.98    
        72.71       72.43       72.15       71.85       71.56       71.25       70.95       70.63       70.32       70.00    
  48    70.00       70.59       71.16       71.71       72.23       72.73       73.19       73.63       74.02       74.38    
        74.71       74.99       75.24       75.45       75.62       75.75       75.86       75.93       75.98       76.01    
        76.01       75.99       75.94       75.88       75.80       75.70       75.58       75.45       75.30       75.14    
        74.97       74.79       74.60       74.39       74.18       73.95       73.72       73.47       73.22       72.96    
        72.69       72.41       72.13       71.84       71.54       71.24       70.94       70.63       70.32       70.00    
  49    70.00       70.58       71.14       71.68       72.20       72.69       73.15       73.58       73.97       74.33    
        74.65       74.93       75.18       75.39       75.56       75.70       75.80       75.88       75.93       75.96    
        75.96       75.94       75.90       75.84       75.76       75.66       75.55       75.42       75.28       75.12    
        74.95       74.77       74.58       74.37       74.16       73.93       73.70       73.46       73.20       72.94    
        72.68       72.40       72.12       71.83       71.54       71.24       70.93       70.62       70.31       70.00    
  50    70.00       70.57       71.13       71.67       72.18       72.67       73.13       73.55       73.94       74.30    
        74.62       74.90       75.15       75.36       75.53       75.67       75.78       75.86       75.91       75.94    
        75.94       75.92       75.88       75.82       75.74       75.65       75.53       75.41       75.26       75.11    
        74.94       74.76       74.56       74.36       74.15       73.92       73.69       73.45       73.20       72.94    
        72.67       72.40       72.11       71.83       71.53       71.23       70.93       70.62       70.31       70.00    
1
              HEAD IN LAYER   3 AT END OF TIME STEP   1 IN STRESS PERIOD    1
  ---------------------------------------------------------------------------

            1           2           3           4           5           6           7           8           9          10
           11          12          13          14          15          16          17          18          19          20
           21          22          23          24          25          26          27          28          29          30
[...]
        81.03       80.28       79.57       78.92       78.37       77.95       77.64       77.39       77.18       76.99    
        76.82       76.66       76.51       76.35       76.20       76.05       75.89       75.72       75.55       75.39    
        75.22       75.03       74.82       74.57       74.27       73.89       73.38       72.65       71.56       70.00    
  24    70.00       82.50       88.92       91.39       92.25       92.38       92.14       91.69       91.11       90.44    
        89.72       88.95       88.15       87.32       86.48       85.62       84.75       83.88       83.00       82.13    
        81.26       80.40       79.57       78.80       78.14       77.77       77.52       77.32       77.15       77.00    
        76.86       76.73       76.60       76.47       76.34       76.21       76.08       75.94       75.81       75.67    
        75.53       75.38       75.22       75.03       74.81       74.54       74.16       73.56       72.43       70.00    
  25    70.00       90.97       97.30       97.30       96.64       95.83       94.96       94.05       93.12       92.18    
        91.22       90.26       89.29       88.32       87.35       86.37       85.39       84.41       83.43       82.45    
        81.47       80.49       79.51       78.55       77.64       77.46       77.33       77.22       77.11       77.00    
        76.89       76.79       76.69       76.58       76.48       76.37       76.27       76.17       76.06       75.96    
        75.85       75.74       75.64       75.52       75.41       75.28       75.15       74.96       74.49       70.00    
  26    70.00       82.50       88.92       91.39       92.25       92.38       92.14       91.69       91.11       90.45    
        89.72       88.95       88.15       87.32       86.48       85.62       84.75       83.88       83.00       82.13    
        81.26       80.40       79.57       78.80       78.14       77.77       77.51       77.32       77.15       77.00    
        76.86       76.73       76.60       76.47       76.34       76.22       76.09       75.96       75.82       75.69    
        75.54       75.39       75.22       75.03       74.81       74.54       74.16       73.56       72.42       70.00    
  27    70.00       78.20       83.65       86.75       88.39       89.17       89.45       89.40       89.14       88.73    
        88.23       87.64       87.00       86.32       85.60       84.86       84.10       83.33       82.56       81.79    
        81.03       80.28       79.57       78.92       78.37       77.95       77.64       77.39       77.18       76.99    
        76.82       76.66       76.51       76.36       76.21       76.06       75.91       75.75       75.59       75.42    
        75.24       75.04       74.82       74.57       74.27       73.89       73.38       72.65       71.56       70.00    
  28    70.00       75.81       80.26       83.28       85.21       86.36       86.99       87.25       87.26       87.08    
        86.77       86.36       85.87       85.33       84.73       84.10       83.45       82.79       82.11       81.44    
        80.77       80.12       79.51       78.94       78.44       78.04       77.70       77.42       77.18       76.97    
        76.77       76.59       76.41       76.24       76.07       75.90       75.73       75.55       75.37       75.17    
        74.96       74.72       74.46       74.16       73.80       73.36       72.80       72.08       71.14       70.00    
  29    70.00       74.37       77.99       80.73       82.67       83.99       84.83       85.30       85.52       85.53    
        85.39       85.13       84.78       84.36       83.88       83.36       82.81       82.24       81.65       81.07    
        80.49       79.92       79.38       78.88       78.43       78.04       77.71       77.41       77.16       76.92    
        76.71       76.51       76.32       76.13       75.94       75.75       75.56       75.36       75.15       74.93    
        74.69       74.43       74.14       73.80       73.41       72.95       72.39       71.71       70.90       70.00    
  30    70.00       73.43       76.41       78.82       80.67       82.02       82.96       83.58       83.94       84.09    
        84.09       83.96       83.74       83.43       83.06       82.63       82.18       81.69       81.19       80.69    
        80.19       79.69       79.22       78.77       78.36       77.99       77.66       77.37       77.11       76.86    
        76.64       76.42       76.21       76.01       75.81       75.60       75.39       75.18       74.95       74.71    
        74.45       74.17       73.85       73.50       73.09       72.62       72.08       71.46       70.76       70.00    
  31    70.00       72.78       75.27       77.38       79.08       80.39       81.37       82.07       82.53       82.79    
        82.90       82.88       82.75       82.54       82.27       81.93       81.56       81.16       80.74       80.30    
        79.87       79.44       79.02       78.62       78.25       77.90       77.59       77.30       77.03       76.78    
        76.55       76.32       76.10       75.89       75.67       75.46       75.23       75.00       74.76       74.50    
        74.23       73.93       73.60       73.24       72.83       72.37       71.86       71.28       70.66       70.00    
  32    70.00       72.31       74.42       76.26       77.81       79.06       80.03       80.76       81.28       81.62    
        81.81       81.88       81.84       81.71       81.52       81.26       80.97       80.64       80.29       79.92    
        79.54       79.17       78.80       78.44       78.10       77.78       77.48       77.20       76.94       76.69    
        76.45       76.22       75.99       75.77       75.54       75.32       75.08       74.84       74.59       74.32    
        74.03       73.72       73.39       73.02       72.61       72.17       71.68       71.15       70.59       70.00    
  33    70.00       71.95       73.77       75.39       76.79       77.95       78.90       79.63       80.19       80.58    
        80.83       80.96       81.00       80.94       80.82       80.63       80.40       80.14       79.84       79.54    
        79.22       78.89       78.57       78.25       77.94       77.64       77.36       77.09       76.83       76.58    
        76.34       76.11       75.88       75.65       75.42       75.18       74.94       74.69       74.42       74.15    
        73.85       73.54       73.20       72.83       72.44       72.01       71.55       71.05       70.53       70.00    
  34    70.00       71.68       73.26       74.70       75.96       77.04       77.94       78.66       79.23       79.65    
        79.95       80.14       80.22       80.23       80.16       80.04       79.86       79.66       79.42       79.16    
        78.89       78.61       78.32       78.04       77.76       77.49       77.22       76.96       76.71       76.47    
        76.23       76.00       75.76       75.53       75.29       75.05       74.80       74.54       74.27       73.99    
        73.69       73.38       73.04       72.68       72.29       71.88       71.44       70.97       70.49       70.00    
  35    70.00       71.47       72.86       74.14       75.28       76.28       77.13       77.83       78.40       78.84    
        79.17       79.39       79.52       79.57       79.56       79.48       79.36       79.20       79.01       78.80    
        78.57       78.33       78.08       77.83       77.57       77.32       77.07       76.83       76.59       76.35    
        76.11       75.88       75.64       75.41       75.17       74.92       74.67       74.41       74.14       73.85    
        73.55       73.23       72.90       72.54       72.17       71.77       71.35       70.91       70.46       70.00    
  36    70.00       71.30       72.53       73.68       74.72       75.64       76.44       77.12       77.68       78.13    
        78.47       78.72       78.89       78.98       79.00       78.97       78.89       78.77       78.63       78.45    
        78.26       78.05       77.84       77.61       77.38       77.15       76.92       76.69       76.46       76.23    
        75.99       75.76       75.53       75.29       75.05       74.80       74.55       74.29       74.01       73.72    
        73.42       73.11       72.78       72.43       72.06       71.68       71.28       70.86       70.43       70.00    
  37    70.00       71.16       72.27       73.30       74.26       75.11       75.86       76.51       77.05       77.50    
        77.86       78.13       78.32       78.44       78.50       78.50       78.45       78.37       78.26       78.12    
        77.97       77.79       77.60       77.40       77.19       76.98       76.76       76.54       76.32       76.10    
        75.88       75.65       75.42       75.18       74.94       74.69       74.44       74.17       73.90       73.61    
        73.31       73.00       72.67       72.33       71.97       71.60       71.22       70.82       70.41       70.00    
  38    70.00       71.04       72.05       72.99       73.87       74.66       75.37       75.98       76.51       76.95    
        77.31       77.60       77.81       77.95       78.04       78.07       78.05       78.00       77.92       77.82    
        77.69       77.54       77.37       77.19       77.01       76.81       76.61       76.40       76.19       75.98    
        75.76       75.54       75.31       75.07       74.83       74.59       74.33       74.07       73.79       73.51    
        73.21       72.90       72.58       72.25       71.90       71.54       71.16       70.78       70.39       70.00    
  39    70.00       70.95       71.87       72.73       73.54       74.28       74.94       75.53       76.04       76.48    
        76.84       77.13       77.35       77.52       77.62       77.68       77.69       77.67       77.61       77.53    
        77.42       77.30       77.15       77.00       76.83       76.65       76.46       76.27       76.07       75.86    
        75.65       75.43       75.20       74.97       74.73       74.49       74.23       73.97       73.70       73.41    
        73.12       72.82       72.50       72.17       71.83       71.48       71.12       70.75       70.38       70.00    
  40    70.00       70.87       71.72       72.52       73.27       73.96       74.59       75.15       75.64       76.07    
        76.42       76.72       76.95       77.13       77.25       77.32       77.36       77.36       77.32       77.26    
        77.18       77.07       76.95       76.81       76.66       76.49       76.32       76.14       75.94       75.74    
        75.54       75.32       75.10       74.87       74.64       74.40       74.14       73.88       73.61       73.33    
        73.04       72.74       72.43       72.11       71.78       71.43       71.08       70.73       70.37       70.00    
  41    70.00       70.81       71.59       72.34       73.04       73.69       74.28       74.82       75.29       75.71    
        76.06       76.36       76.60       76.79       76.92       77.01       77.06       77.08       77.06       77.02    
        76.96       76.87       76.76       76.64       76.50       76.35       76.18       76.01       75.83       75.64    
        75.44       75.23       75.01       74.79       74.55       74.31       74.06       73.80       73.53       73.26    
        72.97       72.67       72.37       72.05       71.73       71.39       71.05       70.71       70.36       70.00    
  42    70.00       70.75       71.48       72.18       72.84       73.46       74.02       74.54       75.00       75.40    
        75.75       76.05       76.29       76.49       76.63       76.73       76.80       76.83       76.83       76.81    
        76.75       76.68       76.59       76.48       76.35       76.21       76.06       75.90       75.72       75.54    
        75.34       75.14       74.92       74.70       74.47       74.24       73.99       73.73       73.47       73.19    
        72.91       72.62       72.31       72.00       71.69       71.36       71.03       70.69       70.35       70.00    
  43    70.00       70.71       71.40       72.06       72.68       73.27       73.81       74.30       74.74       75.14    
        75.48       75.78       76.03       76.22       76.38       76.49       76.56       76.61       76.62       76.61    
        76.57       76.52       76.44       76.34       76.22       76.09       75.95       75.79       75.62       75.44    
        75.25       75.06       74.85       74.63       74.40       74.17       73.92       73.67       73.41       73.13    
        72.85       72.57       72.27       71.96       71.65       71.33       71.00       70.67       70.34       70.00    
  44    70.00       70.67       71.33       71.95       72.55       73.11       73.62       74.10       74.53       74.92    
        75.26       75.55       75.80       76.00       76.16       76.28       76.36       76.42       76.44       76.44    
        76.42       76.37       76.30       76.21       76.10       75.98       75.85       75.70       75.54       75.36    
        75.18       74.98       74.78       74.56       74.34       74.11       73.86       73.61       73.35       73.08    
        72.81       72.52       72.23       71.93       71.62       71.30       70.98       70.66       70.33       70.00    
  45    70.00       70.64       71.27       71.87       72.44       72.97       73.48       73.94       74.36       74.74    
        75.07       75.36       75.61       75.81       75.98       76.10       76.19       76.26       76.29       76.30    
        76.28       76.24       76.18       76.10       76.00       75.89       75.76       75.62       75.46       75.29    
        75.11       74.92       74.72       74.51       74.29       74.05       73.81       73.57       73.31       73.04    
        72.77       72.49       72.19       71.90       71.59       71.28       70.97       70.65       70.33       70.00    
  46    70.00       70.62       71.22       71.80       72.35       72.87       73.36       73.80       74.22       74.59    
        74.92       75.21       75.45       75.66       75.83       75.96       76.05       76.12       76.16       76.18    
        76.17       76.14       76.08       76.01       75.92       75.81       75.69       75.55       75.39       75.23    
        75.05       74.87       74.67       74.46       74.24       74.01       73.77       73.53       73.27       73.01    
        72.73       72.46       72.17       71.87       71.57       71.27       70.96       70.64       70.32       70.00    
  47    70.00       70.60       71.18       71.74       72.28       72.79       73.26       73.70       74.11       74.47    
        74.80       75.08       75.33       75.54       75.71       75.84       75.94       76.01       76.06       76.08    
        76.08       76.05       76.00       75.93       75.85       75.74       75.63       75.49       75.34       75.18    
        75.01       74.82       74.63       74.42       74.20       73.98       73.74       73.50       73.24       72.98    
        72.71       72.43       72.15       71.85       71.56       71.25       70.95       70.63       70.32       70.00    
  48    70.00       70.59       71.16       71.71       72.23       72.73       73.19       73.63       74.02       74.38    
        74.71       74.99       75.24       75.45       75.62       75.75       75.86       75.93       75.98       76.01    
        76.01       75.99       75.94       75.88       75.80       75.70       75.58       75.45       75.30       75.14    
        74.97       74.79       74.60       74.39       74.18       73.95       73.72       73.47       73.22       72.96    
        72.69       72.41       72.13       71.84       71.54       71.24       70.94       70.63       70.32       70.00    
  49    70.00       70.58       71.14       71.68       72.20       72.69       73.15       73.58       73.97       74.33    
        74.65       74.93       75.18       75.39       75.56       75.70       75.80       75.88       75.93       75.96    
        75.96       75.94       75.90       75.84       75.76       75.66       75.55       75.42       75.28       75.12    
        74.95       74.77       74.58       74.37       74.16       73.93       73.70       73.46       73.20       72.94    
        72.68       72.40       72.12       71.83       71.54       71.24       70.93       70.62       70.31       70.00    
  50    70.00       70.57       71.13       71.67       72.18       72.67       73.13       73.55       73.94       74.30    
        74.62       74.90       75.15       75.36       75.53       75.67       75.78       75.86       75.91       75.94    
        75.94       75.92       75.88       75.82       75.74       75.65       75.53       75.41       75.26       75.11    
        74.94       74.76       74.56       74.36       74.15       73.92       73.69       73.45       73.20       72.94    
        72.67       72.40       72.11       71.83       71.53       71.23       70.93       70.62       70.31       70.00    

 HEAD WILL BE SAVED ON UNIT   51 AT END OF TIME STEP    1, STRESS PERIOD    1

 DRAWDOWN WILL BE SAVED ON UNIT   52 AT END OF TIME STEP    1, STRESS PERIOD    1
1
  VOLUMETRIC BUDGET FOR ENTIRE MODEL AT END OF TIME STEP    1, STRESS PERIOD   1
  ------------------------------------------------------------------------------

     CUMULATIVE VOLUMES      L**3       RATES FOR THIS TIME STEP      L**3/T
     ------------------                 ------------------------

           IN:                                      IN:
           ---                                      ---
             STORAGE =           0.0000               STORAGE =           0.0000
       CONSTANT HEAD =           0.0000         CONSTANT HEAD =           0.0000
               WELLS =         375.0000                 WELLS =         375.0000
       RIVER LEAKAGE =     1215125.3750         RIVER LEAKAGE =     1215125.3750
                  ET =           0.0000                    ET =           0.0000
            RECHARGE =       35599.9961              RECHARGE =       35599.9961

            TOTAL IN =     1251100.3750              TOTAL IN =     1251100.3750

          OUT:                                     OUT:
          ----                                     ----
             STORAGE =           0.0000               STORAGE =           0.0000
       CONSTANT HEAD =     1214812.2500         CONSTANT HEAD =     1214812.2500
               WELLS =        6000.0000                 WELLS =        6000.0000
       RIVER LEAKAGE =       29921.5195         RIVER LEAKAGE =       29921.5195
                  ET =         366.1451                    ET =         366.1451
            RECHARGE =           0.0000              RECHARGE =           0.0000

           TOTAL OUT =     1251099.8750             TOTAL OUT =     1251099.8750

            IN - OUT =           0.5000              IN - OUT =           0.5000

 PERCENT DISCREPANCY =           0.00     PERCENT DISCREPANCY =           0.00






         TIME SUMMARY AT END OF TIME STEP    1 IN STRESS PERIOD    1
                    SECONDS     MINUTES      HOURS       DAYS        YEARS
                    -----------------------------------------------------------
   TIME STEP LENGTH  86400.      1440.0      24.000      1.0000     2.73785E-03
 STRESS PERIOD TIME  86400.      1440.0      24.000      1.0000     2.73785E-03
         TOTAL TIME  86400.      1440.0      24.000      1.0000     2.73785E-03
1

 Run end date and time (yyyy/mm/dd hh:mm:ss): 2026/02/25  7:18:59
 Elapsed run time:  9.316 Seconds

