                                  MODFLOW-2005     
      U.S. GEOLOGICAL SURVEY MODULAR FINITE-DIFFERENCE GROUND-WATER FLOW MODEL
                            VERSION 1.12.00 2/3/2017

 LIST FILE: static_ensemble_S1bc_1323131.list
                         UNIT    2

 OPENING static_ensemble_S1bc_1323131.dis
 FILE TYPE:DIS   UNIT   11   STATUS:OLD    
 FORMAT:FORMATTED              ACCESS:SEQUENTIAL          

 OPENING static_ensemble_S1bc_1323131.bas
 FILE TYPE:BAS6   UNIT   13   STATUS:OLD    
 FORMAT:FORMATTED              ACCESS:SEQUENTIAL          

 OPENING static_ensemble_S1bc_1323131.lpf
 FILE TYPE:LPF   UNIT   15   STATUS:OLD    
 FORMAT:FORMATTED              ACCESS:SEQUENTIAL          

 OPENING static_ensemble_S1bc_1323131.evt
 FILE TYPE:EVT   UNIT   22   STATUS:OLD    
 FORMAT:FORMATTED              ACCESS:SEQUENTIAL          

 OPENING static_ensemble_S1bc_1323131.rch
 FILE TYPE:RCH   UNIT   19   STATUS:OLD    
 FORMAT:FORMATTED              ACCESS:SEQUENTIAL          

 OPENING static_ensemble_S1bc_1323131.riv
 FILE TYPE:RIV   UNIT   18   STATUS:OLD    
 FORMAT:FORMATTED              ACCESS:SEQUENTIAL          

 OPENING static_ensemble_S1bc_1323131.wel
 FILE TYPE:WEL   UNIT   20   STATUS:OLD    
 FORMAT:FORMATTED              ACCESS:SEQUENTIAL          

 OPENING static_ensemble_S1bc_1323131.oc
 FILE TYPE:OC   UNIT   14   STATUS:OLD    
 FORMAT:FORMATTED              ACCESS:SEQUENTIAL          

 OPENING static_ensemble_S1bc_1323131.pcg
 FILE TYPE:PCG   UNIT   27   STATUS:OLD    
 FORMAT:FORMATTED              ACCESS:SEQUENTIAL          

 OPENING static_ensemble_S1bc_1323131.cbc
 FILE TYPE:DATA(BINARY)   UNIT   53   STATUS:REPLACE
 FORMAT:UNFORMATTED            ACCESS:STREAM              

 OPENING static_ensemble_S1bc_1323131.hds
 FILE TYPE:DATA(BINARY)   UNIT   51   STATUS:REPLACE
 FORMAT:UNFORMATTED            ACCESS:STREAM              

 OPENING static_ensemble_S1bc_1323131.ddn
 FILE TYPE:DATA(BINARY)   UNIT   52   STATUS:REPLACE
 FORMAT:UNFORMATTED            ACCESS:STREAM              

 BAS -- BASIC PACKAGE, VERSION 7, 5/2/2005 INPUT READ FROM UNIT   13
 
 MODFLOW was compiled using mixed precision
 Precision of REAL variables:           6
 Precision of DOUBLE PRECISION variables:          15

 DISCRETIZATION INPUT DATA READ FROM UNIT   11
 # DIS package for MODFLOW-2005 generated by Flopy 3.10.0
    3 LAYERS        50 ROWS        50 COLUMNS
    1 STRESS PERIOD(S) IN SIMULATION
 MODEL TIME UNIT IS DAYS
 MODEL LENGTH UNIT IS METERS
  Confining bed flag for each layer:
   0   0   0

                     DELR =   1000.00    

                     DELC =   1000.00    



           TOP ELEVATION OF LAYER 1
 READING ON UNIT   11 WITH FORMAT: (50E15.6)           



             MODEL LAYER BOTTOM EL. FOR LAYER   1
 READING ON UNIT   11 WITH FORMAT: (50E15.6)           



             MODEL LAYER BOTTOM EL. FOR LAYER   2
 READING ON UNIT   11 WITH FORMAT: (50E15.6)           



             MODEL LAYER BOTTOM EL. FOR LAYER   3
 READING ON UNIT   11 WITH FORMAT: (50E15.6)           


 STRESS PERIOD     LENGTH       TIME STEPS     MULTIPLIER FOR DELT    SS FLAG
 ----------------------------------------------------------------------------
        1         1.000000          1                    1.000         SS

 STEADY-STATE SIMULATION



 
 # BAS6 package for MODFLOW-2005 generated by Flopy 3.10.0                       
 THE FREE FORMAT OPTION HAS BEEN SELECTED



                     BOUNDARY ARRAY FOR LAYER   1
 READING ON UNIT   13 WITH FORMAT: (50I10)             



                     BOUNDARY ARRAY FOR LAYER   2
 READING ON UNIT   13 WITH FORMAT: (50I10)             



                     BOUNDARY ARRAY FOR LAYER   3
 READING ON UNIT   13 WITH FORMAT: (50I10)             

 AQUIFER HEAD WILL BE SET TO  -999.99     AT ALL NO-FLOW NODES (IBOUND=0).



                       INITIAL HEAD FOR LAYER   1
 READING ON UNIT   13 WITH FORMAT: (50E15.6)           



                       INITIAL HEAD FOR LAYER   2
 READING ON UNIT   13 WITH FORMAT: (50E15.6)           



                       INITIAL HEAD FOR LAYER   3
 READING ON UNIT   13 WITH FORMAT: (50E15.6)           
 # OC package for MODFLOW-2005 generated by Flopy 3.10.0

 OUTPUT CONTROL IS SPECIFIED ONLY AT TIME STEPS FOR WHICH OUTPUT IS DESIRED
 COMPACT CELL-BY-CELL BUDGET FILES WILL BE WRITTEN
 AUXILIARY DATA WILL BE SAVED IN CELL-BY-CELL BUDGET FILES
 HEAD PRINT FORMAT CODE IS   0    DRAWDOWN PRINT FORMAT CODE IS   0
 HEADS WILL BE SAVED ON UNIT   51    DRAWDOWNS WILL BE SAVED ON UNIT   52

 LPF -- LAYER-PROPERTY FLOW PACKAGE, VERSION 7, 5/2/2005
         INPUT READ FROM UNIT   15
 # LPF package for MODFLOW-2005 generated by Flopy 3.10.0
 CELL-BY-CELL FLOWS WILL BE SAVED ON UNIT   53
 HEAD AT CELLS THAT CONVERT TO DRY= -1.00000E+30
 No named parameters
 STORAGECOEFFICIENT OPTION:
 Read storage coefficient rather than specific storage

   LAYER FLAGS:
 LAYER       LAYTYP        LAYAVG         CHANI        LAYVKA        LAYWET
 ---------------------------------------------------------------------------
    1             1             0     1.000E+00             0             0
    2             1             0     1.000E+00             0             0
    3             1             0     1.000E+00             0             0

   INTERPRETATION OF LAYER FLAGS:
                        INTERBLOCK     HORIZONTAL    DATA IN
         LAYER TYPE   TRANSMISSIVITY   ANISOTROPY   ARRAY VKA   WETTABILITY
 LAYER      (LAYTYP)      (LAYAVG)       (CHANI)      (LAYVKA)      (LAYWET)
 ---------------------------------------------------------------------------
    1   CONVERTIBLE      HARMONIC     1.000E+00    VERTICAL K  NON-WETTABLE
    2   CONVERTIBLE      HARMONIC     1.000E+00    VERTICAL K  NON-WETTABLE
    3   CONVERTIBLE      HARMONIC     1.000E+00    VERTICAL K  NON-WETTABLE

 WETTING CAPABILITY IS NOT ACTIVE IN ANY LAYER



              HYD. COND. ALONG ROWS FOR LAYER   1
 READING ON UNIT   15 WITH FORMAT: (50E15.6)           



                VERTICAL HYD. COND. FOR LAYER   1
 READING ON UNIT   15 WITH FORMAT: (50E15.6)           



              HYD. COND. ALONG ROWS FOR LAYER   2
 READING ON UNIT   15 WITH FORMAT: (50E15.6)           



                VERTICAL HYD. COND. FOR LAYER   2
 READING ON UNIT   15 WITH FORMAT: (50E15.6)           



              HYD. COND. ALONG ROWS FOR LAYER   3
 READING ON UNIT   15 WITH FORMAT: (50E15.6)           



                VERTICAL HYD. COND. FOR LAYER   3
 READING ON UNIT   15 WITH FORMAT: (50E15.6)           

 WEL -- WELL PACKAGE, VERSION 7, 5/2/2005 INPUT READ FROM UNIT   20
 # WEL package for MODFLOW-2005 generated by Flopy 3.10.0
 No named parameters
 MAXIMUM OF      3 ACTIVE WELLS AT ONE TIME


     0 Well parameters

 RIV -- RIVER PACKAGE, VERSION 7, 5/2/2005 INPUT READ FROM UNIT   18
 # RIV package for MODFLOW-2005 generated by Flopy 3.10.0
 No named parameters
 MAXIMUM OF     49 ACTIVE RIVER REACHES AT ONE TIME
 CELL-BY-CELL FLOWS WILL BE SAVED ON UNIT   53


     0 River parameters

 EVT -- EVAPOTRANSPIRATION PACKAGE, VERSION 7, 5/2/2005
         INPUT READ FROM UNIT   22
 # EVT package for MODFLOW-2005 generated by Flopy 3.10.0
 No named parameters
 OPTION 3 -- EVAPOTRANSPIRATION FROM HIGHEST ACTIVE NODE IN EACH VERTICAL COLUMN
 CELL-BY-CELL FLOWS WILL BE SAVED ON UNIT   53


     0 Evapotranspiration parameters

 RCH -- RECHARGE PACKAGE, VERSION 7, 5/2/2005 INPUT READ FROM UNIT   19
 # RCH package for MODFLOW-2005 generated by Flopy 3.10.0
 No named parameters
 OPTION 3 -- RECHARGE TO HIGHEST ACTIVE NODE IN EACH VERTICAL COLUMN
 CELL-BY-CELL FLOWS WILL BE SAVED ON UNIT   53


     0 Recharge parameters

 PCG -- CONJUGATE-GRADIENT SOLUTION PACKAGE, VERSION 7, 5/2/2005
 # PCG package for MODFLOW-2005 generated by Flopy 3.10.0
 MAXIMUM OF   5000 CALLS OF SOLUTION ROUTINE
 MAXIMUM OF    500 INTERNAL ITERATIONS PER CALL TO SOLUTION ROUTINE
 MATRIX PRECONDITIONING TYPE :    1



                                    SOLUTION BY THE CONJUGATE-GRADIENT METHOD
                                   -------------------------------------------
                    MAXIMUM NUMBER OF CALLS TO PCG ROUTINE =     5000
                        MAXIMUM ITERATIONS PER CALL TO PCG =      500
                               MATRIX PRECONDITIONING TYPE =        1
        RELAXATION FACTOR (ONLY USED WITH PRECOND. TYPE 1) =    0.97000E+00
 PARAMETER OF POLYNOMIAL PRECOND. = 2 (2) OR IS CALCULATED :        0
                         HEAD CHANGE CRITERION FOR CLOSURE =    0.10000E-04
                     RESIDUAL CHANGE CRITERION FOR CLOSURE =    0.10000E-04
            PCG HEAD AND RESIDUAL CHANGE PRINTOUT INTERVAL =      999
     PRINTING FROM SOLVER IS LIMITED(1) OR SUPPRESSED (>1) =        3
                            STEADY-STATE DAMPING PARAMETER =    0.10000E-01
                               TRANSIENT DAMPING PARAMETER =    0.10000E-01
1
                            STRESS PERIOD NO.    1, LENGTH =   1.000000    
                            -----------------------------------------------

                              NUMBER OF TIME STEPS =     1

                               MULTIPLIER FOR DELT =     1.000

                            INITIAL TIME STEP SIZE =   1.000000    

 WELL NO.  LAYER   ROW   COL   STRESS RATE         
 --------------------------------------------------
      1      3     22     39      -1500.    
      2      1     13     15      -4500.    
      3      1     25     26       375.0    

      3 WELLS

 REACH NO.  LAYER   ROW   COL     STAGE      CONDUCTANCE     BOTTOM EL.         
 -------------------------------------------------------------------------------
      1      1     25      2       100.5           50.00           98.00    
      2      1     25      3       99.50           50.00           97.00    
      3      1     25      4       98.50           50.00           96.00    
      4      1     25      5       97.50           50.00           95.00    
      5      1     25      6       96.50           50.00           94.00    
      6      1     25      7       95.50           50.00           93.00    
      7      1     25      8       94.50           50.00           92.00    
      8      1     25      9       93.50           50.00           91.00    
      9      1     25     10       92.50           50.00           90.00    
     10      1     25     11       91.50           50.00           89.00    
     11      1     25     12       90.50           50.00           88.00    
     12      1     25     13       89.50           50.00           87.00    
     13      1     25     14       88.50           50.00           86.00    
     14      1     25     15       87.50           50.00           85.00    
     15      1     25     16       86.50           50.00           84.00    
     16      1     25     17       85.50           50.00           83.00    
     17      1     25     18       84.50           50.00           82.00    
     18      1     25     19       83.50           50.00           81.00    
     19      1     25     20       82.50           50.00           80.00    
     20      1     25     21       81.50           50.00           79.00    
     21      1     25     22       80.50           50.00           78.00    
     22      1     25     23       79.50           50.00           77.00    
     23      1     25     24       78.50           50.00           76.00    
     24      1     25     25       77.50           50.00           75.00    
     25      1     25     26       77.40           50.00           74.90    
     26      1     25     27       77.30           50.00           74.80    
     27      1     25     28       77.20           50.00           74.70    
     28      1     25     29       77.10           50.00           74.60    
     29      1     25     30       77.00           50.00           74.50    
     30      1     25     31       76.90           50.00           74.40    
     31      1     25     32       76.80           50.00           74.30    
     32      1     25     33       76.70           50.00           74.20    
     33      1     25     34       76.60           50.00           74.10    
     34      1     25     35       76.50           50.00           74.00    
     35      1     25     36       76.40           50.00           73.90    
     36      1     25     37       76.30           50.00           73.80    
     37      1     25     38       76.20           50.00           73.70    
     38      1     25     39       76.10           50.00           73.60    
     39      1     25     40       76.00           50.00           73.50    
     40      1     25     41       75.90           50.00           73.40    
     41      1     25     42       75.80           50.00           73.30    
     42      1     25     43       75.70           50.00           73.20    
     43      1     25     44       75.60           50.00           73.10    
     44      1     25     45       75.50           50.00           73.00    
     45      1     25     46       75.40           50.00           72.90    
     46      1     25     47       75.30           50.00           72.80    
     47      1     25     48       75.20           50.00           72.70    
     48      1     25     49       75.10           50.00           72.60    
     49      1     25     50       75.00           50.00           72.50    

     49 RIVER REACHES



                         ET SURFACE
 READING ON UNIT   22 WITH FORMAT: (50E15.6)           



            EVAPOTRANSPIRATION RATE
 READING ON UNIT   22 WITH FORMAT: (50E15.6)           

         EXTINCTION DEPTH =   10.0000    



                           RECHARGE
 READING ON UNIT   19 WITH FORMAT: (50E15.6)           
 
 SOLVING FOR HEAD 

 OUTPUT CONTROL FOR STRESS PERIOD    1   TIME STEP    1
    SAVE HEAD FOR ALL LAYERS
    SAVE DRAWDOWN FOR ALL LAYERS
    SAVE BUDGET
    PRINT HEAD FOR ALL LAYERS
    PRINT BUDGET
 UBDSV2 SAVING "   CONSTANT HEAD" ON UNIT  53 AT TIME STEP  1, STRESS PERIOD   1
 UBDSV1 SAVING "FLOW RIGHT FACE " ON UNIT  53 AT TIME STEP  1, STRESS PERIOD   1
 UBDSV1 SAVING "FLOW FRONT FACE " ON UNIT  53 AT TIME STEP  1, STRESS PERIOD   1
 UBDSV1 SAVING "FLOW LOWER FACE " ON UNIT  53 AT TIME STEP  1, STRESS PERIOD   1
 UBDSV4 SAVING "   RIVER LEAKAGE" ON UNIT  53 AT TIME STEP  1, STRESS PERIOD   1
 UBDSV3 SAVING "              ET" ON UNIT  53 AT TIME STEP  1, STRESS PERIOD   1
 UBDSV3 SAVING "        RECHARGE" ON UNIT  53 AT TIME STEP  1, STRESS PERIOD   1
1
              HEAD IN LAYER   1 AT END OF TIME STEP   1 IN STRESS PERIOD    1
  ---------------------------------------------------------------------------

            1           2           3           4           5           6           7           8           9          10
           11          12          13          14          15          16          17          18          19          20
           21          22          23          24          25          26          27          28          29          30
           31          32          33          34          35          36          37          38          39          40
           41          42          43          44          45          46          47          48          49          50
 ........................................................................................................................
   1    70.00       71.46       72.76       73.90       74.90       75.75       76.47       77.06       77.53       77.87    
        78.11       78.23       78.24       78.14       77.94       77.63       77.34       77.07       76.82       76.59    
        76.36       76.15       75.94       75.74       75.53       75.34       75.14       74.94       74.73       74.53    
        74.32       74.12       73.90       73.69       73.47       73.25       73.03       72.81       72.58       72.35    
        72.12       71.89       71.66       71.43       71.19       70.95       70.72       70.48       70.24       70.00    
   2    70.00       71.46       72.76       73.90       74.89       75.75       76.46       77.05       77.52       77.86    
        78.09       78.21       78.22       78.12       77.92       77.61       77.32       77.06       76.81       76.57    
        76.35       76.14       75.93       75.73       75.53       75.34       75.14       74.94       74.74       74.53    
        74.33       74.12       73.91       73.69       73.47       73.25       73.03       72.81       72.58       72.35    
        72.12       71.89       71.66       71.43       71.19       70.95       70.72       70.48       70.24       70.00    
   3    70.00       71.46       72.76       73.90       74.89       75.73       76.45       77.03       77.49       77.83    
        78.06       78.17       78.18       78.08       77.87       77.57       77.28       77.02       76.78       76.55    
        76.33       76.12       75.92       75.73       75.53       75.33       75.14       74.94       74.74       74.54    
        74.33       74.12       73.91       73.70       73.48       73.26       73.03       72.81       72.58       72.35    
        72.12       71.89       71.66       71.43       71.19       70.95       70.72       70.48       70.24       70.00    
   4    70.00       71.46       72.75       73.89       74.87       75.72       76.43       77.00       77.46       77.79    
        78.01       78.11       78.11       78.01       77.80       77.50       77.22       76.96       76.73       76.51    
        76.30       76.10       75.91       75.72       75.53       75.33       75.14       74.94       74.75       74.54    
        74.34       74.13       73.92       73.70       73.48       73.26       73.04       72.81       72.59       72.36    
        72.13       71.90       71.66       71.43       71.19       70.96       70.72       70.48       70.24       70.00    
   5    70.00       71.46       72.74       73.88       74.86       75.70       76.40       76.97       77.41       77.73    
        77.94       78.03       78.02       77.91       77.70       77.40       77.13       76.89       76.66       76.46    
        76.26       76.07       75.89       75.71       75.52       75.34       75.15       74.95       74.75       74.55    
        74.35       74.14       73.93       73.71       73.49       73.27       73.04       72.82       72.59       72.36    
        72.13       71.90       71.66       71.43       71.19       70.96       70.72       70.48       70.24       70.00    
   6    70.00       71.45       72.74       73.87       74.84       75.67       76.37       76.93       77.36       77.66    
        77.85       77.93       77.90       77.78       77.57       77.27       77.01       76.79       76.58       76.39    
        76.22       76.04       75.87       75.70       75.52       75.34       75.15       74.96       74.77       74.57    
        74.36       74.15       73.94       73.72       73.50       73.28       73.05       72.82       72.60       72.37    
        72.13       71.90       71.67       71.43       71.19       70.96       70.72       70.48       70.24       70.00    
   7    70.00       71.45       72.73       73.86       74.83       75.65       76.33       76.88       77.29       77.58    
        77.74       77.80       77.75       77.61       77.39       77.10       76.86       76.66       76.48       76.32    
        76.17       76.01       75.85       75.69       75.52       75.35       75.16       74.98       74.78       74.58    
        74.38       74.17       73.95       73.73       73.51       73.29       73.06       72.83       72.60       72.37    
        72.14       71.90       71.67       71.43       71.20       70.96       70.72       70.48       70.24       70.00    
   8    70.00       71.45       72.73       73.85       74.81       75.63       76.30       76.83       77.23       77.49    
        77.62       77.64       77.56       77.39       77.16       76.88       76.67       76.51       76.37       76.24    
        76.11       75.98       75.84       75.69       75.53       75.36       75.18       75.00       74.80       74.60    
        74.40       74.19       73.97       73.75       73.53       73.30       73.07       72.84       72.61       72.38    
        72.14       71.91       71.67       71.44       71.20       70.96       70.72       70.48       70.24       70.00    
   9    70.00       71.45       72.72       73.84       74.80       75.61       76.27       76.79       77.16       77.39    
        77.49       77.46       77.32       77.10       76.85       76.59       76.44       76.33       76.25       76.16    
        76.07       75.96       75.84       75.70       75.55       75.38       75.21       75.02       74.83       74.63    
        74.42       74.21       73.99       73.77       73.54       73.31       73.08       72.85       72.62       72.38    
        72.15       71.91       71.67       71.44       71.20       70.96       70.72       70.48       70.24       70.00    
  10    70.00       71.45       72.73       73.84       74.80       75.60       76.26       76.76       77.11       77.30    
        77.35       77.25       77.02       76.71       76.41       76.21       76.15       76.14       76.12       76.09    
        76.03       75.95       75.84       75.72       75.57       75.42       75.24       75.06       74.87       74.66    
        74.45       74.24       74.02       73.79       73.56       73.33       73.09       72.86       72.62       72.39    
        72.15       71.91       71.68       71.44       71.20       70.96       70.72       70.48       70.24       70.00    
  11    70.00       71.45       72.73       73.85       74.81       75.61       76.25       76.74       77.07       77.24    
        77.23       77.04       76.68       76.18       75.72       75.68       75.81       75.94       76.02       76.05    
        76.03       75.97       75.87       75.76       75.62       75.46       75.29       75.10       74.91       74.70    
        74.49       74.27       74.04       73.81       73.58       73.34       73.11       72.87       72.63       72.39    
        72.15       71.92       71.68       71.44       71.20       70.97       70.73       70.48       70.24       70.00    
  12    70.00       71.46       72.74       73.86       74.83       75.63       76.27       76.76       77.07       77.21    
        77.16       76.88       76.33       75.47       74.47       74.97       75.47       75.79       75.97       76.05    
        76.06       76.01       75.93       75.82       75.68       75.52       75.35       75.16       74.96       74.75    
        74.53       74.31       74.08       73.84       73.60       73.36       73.12       72.87       72.63       72.39    
        72.15       71.92       71.68       71.44       71.21       70.97       70.73       70.49       70.24       70.00    
  13    70.00       71.47       72.76       73.89       74.86       75.67       76.32       76.81       77.12       77.26    
        77.18       76.85       76.16       74.76       71.48       74.26       75.31       75.79       76.02       76.12    
        76.14       76.10       76.02       75.90       75.76       75.60       75.42       75.23       75.02       74.81    
        74.58       74.35       74.11       73.87       73.62       73.38       73.13       72.88       72.64       72.39    
        72.15       71.92       71.68       71.44       71.21       70.97       70.73       70.49       70.24       70.00    
  14    70.00       71.48       72.79       73.93       74.91       75.73       76.39       76.89       77.22       77.38    
        77.33       77.07       76.53       75.68       74.69       75.20       75.70       76.02       76.20       76.28    
        76.28       76.23       76.13       76.01       75.86       75.69       75.51       75.31       75.09       74.87    
        74.64       74.40       74.15       73.90       73.65       73.39       73.14       72.88       72.64       72.39    
        72.15       71.92       71.68       71.45       71.21       70.97       70.73       70.49       70.25       70.00    
  15    70.00       71.50       72.82       73.98       74.97       75.81       76.49       77.01       77.37       77.56    
        77.58       77.41       77.07       76.60       76.15       76.13       76.27       76.40       76.48       76.50    
        76.47       76.39       76.28       76.14       75.98       75.80       75.61       75.39       75.17       74.94    
        74.70       74.45       74.20       73.94       73.67       73.41       73.14       72.88       72.63       72.38    
        72.15       71.91       71.68       71.45       71.21       70.98       70.74       70.49       70.25       70.00    
  16    70.00       71.52       72.86       74.04       75.05       75.91       76.61       77.16       77.55       77.79    
        77.87       77.81       77.61       77.33       77.05       76.88       76.84       76.83       76.82       76.78    
        76.71       76.60       76.46       76.30       76.12       75.93       75.72       75.50       75.26       75.02    
        74.77       74.51       74.25       73.97       73.70       73.42       73.14       72.87       72.62       72.37    
        72.13       71.90       71.68       71.45       71.22       70.98       70.74       70.50       70.25       70.00    
  17    70.00       71.54       72.91       74.11       75.14       76.03       76.75       77.33       77.76       78.04    
        78.19       78.20       78.11       77.93       77.71       77.49       77.36       77.27       77.19       77.09    
        76.97       76.83       76.66       76.48       76.28       76.06       75.84       75.61       75.36       75.11    
        74.85       74.58       74.30       74.01       73.72       73.43       73.14       72.85       72.59       72.34    
        72.11       71.89       71.68       71.46       71.23       71.00       70.76       70.51       70.26       70.00    
  18    70.00       71.57       72.96       74.18       75.25       76.15       76.91       77.52       77.98       78.31    
        78.50       78.58       78.55       78.43       78.25       78.01       77.84       77.70       77.57       77.43    
        77.26       77.08       76.88       76.67       76.44       76.21       75.97       75.73       75.47       75.20    
        74.93       74.65       74.36       74.06       73.75       73.43       73.12       72.82       72.54       72.30    
        72.08       71.88       71.68       71.47       71.25       71.01       70.77       70.52       70.26       70.00    
  19    70.00       71.60       73.02       74.27       75.36       76.29       77.08       77.71       78.21       78.58    
        78.81       78.93       78.94       78.86       78.70       78.47       78.28       78.12       77.97       77.79    
        77.57       77.34       77.11       76.87       76.62       76.37       76.11       75.85       75.58       75.31    
        75.02       74.73       74.43       74.11       73.78       73.44       73.09       72.75       72.45       72.23    
        72.04       71.87       71.69       71.49       71.27       71.04       70.80       70.54       70.27       70.00    
  20    70.00       71.63       73.08       74.36       75.48       76.44       77.25       77.92       78.44       78.84    
        79.11       79.26       79.31       79.25       79.11       78.87       78.68       78.52       78.38       78.18    
        77.89       77.61       77.34       77.07       76.80       76.53       76.26       75.99       75.70       75.42    
        75.12       74.82       74.51       74.18       73.82       73.45       73.05       72.64       72.29       72.11    
        71.99       71.86       71.71       71.52       71.31       71.08       70.83       70.56       70.29       70.00    
  21    70.00       71.67       73.16       74.47       75.62       76.60       77.44       78.13       78.68       79.10    
        79.39       79.57       79.64       79.60       79.47       79.24       79.05       78.91       78.87       78.63    
        78.21       77.87       77.56       77.27       76.98       76.70       76.41       76.12       75.83       75.54    
        75.23       74.92       74.60       74.26       73.89       73.48       73.02       72.48       71.94       71.95    
        71.95       71.88       71.76       71.59       71.38       71.14       70.88       70.60       70.31       70.00    
  22    70.00       71.71       73.24       74.59       75.76       76.77       77.63       78.34       78.91       79.35    
        79.67       79.86       79.95       79.92       79.79       79.56       79.36       79.21       79.15       78.90    
        78.46       78.09       77.76       77.45       77.16       76.87       76.57       76.26       75.96       75.66    
        75.35       75.04       74.71       74.37       74.00       73.57       73.05       72.33       71.02       71.80    
        71.98       71.96       71.85       71.68       71.47       71.23       70.95       70.65       70.33       70.00    
  23    70.00       71.77       73.34       74.72       75.92       76.95       77.83       78.56       79.15       79.61    
        79.94       80.15       80.24       80.22       80.09       79.85       79.63       79.43       79.24       78.97    
        78.63       78.28       77.95       77.63       77.34       77.05       76.73       76.41       76.09       75.79    
        75.48       75.17       74.85       74.51       74.15       73.75       73.29       72.76       72.22       72.22    
        72.22       72.14       72.01       71.82       71.60       71.34       71.05       70.73       70.38       70.00    
  24    70.00       71.85       73.46       74.87       76.09       77.15       78.04       78.78       79.39       79.86    
        80.20       80.42       80.52       80.50       80.36       80.12       79.88       79.64       79.40       79.12    
        78.80       78.46       78.12       77.80       77.51       77.26       76.90       76.55       76.23       75.92    
        75.62       75.31       75.01       74.69       74.35       73.99       73.60       73.20       72.84       72.66    
        72.53       72.39       72.21       72.00       71.76       71.49       71.18       70.84       70.44       70.00    
  25    70.00       71.97       73.63       75.06       76.29       77.36       78.26       79.02       79.63       80.11    
        80.46       80.68       80.79       80.77       80.63       80.38       80.13       79.87       79.60       79.32    
        79.00       78.64       78.28       77.94       77.67       77.58       77.05       76.68       76.35       76.05    
        75.76       75.47       75.18       74.88       74.57       74.25       73.93       73.60       73.30       73.06    
        72.86       72.67       72.46       72.22       71.96       71.68       71.36       70.99       70.56       70.00    
  26    70.00       71.87       73.51       74.94       76.19       77.26       78.17       78.94       79.56       80.05    
        80.41       80.64       80.74       80.73       80.59       80.33       80.06       79.80       79.52       79.23    
        78.92       78.59       78.26       77.95       77.66       77.40       77.03       76.69       76.36       76.05    
        75.75       75.46       75.16       74.86       74.56       74.25       73.93       73.63       73.34       73.08    
        72.85       72.62       72.38       72.13       71.85       71.55       71.23       70.86       70.46       70.00    
  27    70.00       71.82       73.43       74.86       76.10       77.18       78.10       78.87       79.50       80.00    
        80.36       80.59       80.70       80.68       80.54       80.28       80.01       79.74       79.46       79.17    
        78.86       78.55       78.24       77.93       77.63       77.33       77.01       76.68       76.36       76.05    
        75.75       75.45       75.15       74.85       74.55       74.25       73.94       73.65       73.36       73.09    
        72.84       72.58       72.32       72.05       71.77       71.46       71.14       70.78       70.40       70.00    
  28    70.00       71.79       73.38       74.80       76.04       77.11       78.04       78.81       79.45       79.95    
        80.31       80.55       80.66       80.64       80.50       80.24       79.97       79.69       79.41       79.12    
        78.82       78.52       78.21       77.91       77.61       77.30       76.99       76.67       76.36       76.05    
        75.75       75.45       75.15       74.85       74.55       74.25       73.95       73.66       73.38       73.10    
        72.83       72.56       72.28       72.00       71.71       71.40       71.08       70.73       70.37       70.00    
  29    70.00       71.77       73.35       74.75       75.99       77.06       77.98       78.76       79.40       79.90    
        80.27       80.51       80.62       80.61       80.47       80.20       79.93       79.65       79.37       79.08    
        78.79       78.49       78.19       77.89       77.59       77.28       76.98       76.67       76.36       76.06    
        75.75       75.45       75.15       74.86       74.56       74.26       73.96       73.67       73.38       73.10    
        72.82       72.54       72.26       71.97       71.67       71.36       71.04       70.70       70.35       70.00    
  30    70.00       71.75       73.32       74.71       75.94       77.02       77.94       78.72       79.36       79.86    
        80.23       80.47       80.58       80.57       80.43       80.16       79.89       79.62       79.34       79.05    
        78.76       78.47       78.17       77.87       77.57       77.27       76.97       76.66       76.36       76.06    
        75.76       75.46       75.16       74.86       74.56       74.27       73.97       73.68       73.39       73.10    
        72.81       72.53       72.24       71.94       71.64       71.33       71.01       70.68       70.34       70.00    
  31    70.00       71.74       73.30       74.69       75.91       76.98       77.90       78.68       79.32       79.82    
        80.19       80.44       80.55       80.54       80.40       80.13       79.86       79.59       79.31       79.02    
        78.74       78.45       78.15       77.86       77.56       77.26       76.96       76.66       76.36       76.06    
        75.76       75.46       75.16       74.86       74.57       74.27       73.98       73.68       73.39       73.10    
        72.81       72.52       72.22       71.92       71.62       71.31       70.99       70.66       70.33       70.00    
  32    70.00       71.73       73.28       74.66       75.88       76.95       77.87       78.65       79.28       79.79    
        80.16       80.40       80.52       80.51       80.37       80.10       79.83       79.56       79.28       79.00    
        78.71       78.43       78.14       77.84       77.55       77.25       76.95       76.65       76.35       76.06    
        75.76       75.46       75.16       74.87       74.57       74.28       73.98       73.69       73.39       73.10    
        72.80       72.51       72.21       71.91       71.60       71.29       70.98       70.65       70.33       70.00    
  33    70.00       71.72       73.27       74.64       75.86       76.92       77.84       78.62       79.25       79.76    
        80.13       80.37       80.49       80.48       80.34       80.07       79.80       79.53       79.26       78.98    
        78.69       78.41       78.12       77.83       77.54       77.24       76.95       76.65       76.35       76.06    
        75.76       75.46       75.17       74.87       74.57       74.28       73.98       73.69       73.39       73.10    
        72.80       72.50       72.20       71.90       71.59       71.28       70.97       70.65       70.32       70.00    
  34    70.00       71.72       73.26       74.63       75.84       76.90       77.82       78.59       79.23       79.73    
        80.11       80.35       80.46       80.45       80.32       80.05       79.78       79.51       79.23       78.96    
        78.68       78.39       78.10       77.82       77.53       77.23       76.94       76.64       76.35       76.05    
        75.76       75.46       75.17       74.87       74.58       74.28       73.98       73.69       73.39       73.10    
        72.80       72.50       72.20       71.89       71.58       71.27       70.96       70.64       70.32       70.00    
  35    70.00       71.71       73.25       74.62       75.83       76.89       77.80       78.57       79.21       79.71    
        80.08       80.33       80.44       80.43       80.29       80.03       79.76       79.49       79.21       78.94    
        78.66       78.38       78.09       77.80       77.52       77.22       76.93       76.64       76.35       76.05    
        75.76       75.46       75.17       74.87       74.58       74.28       73.99       73.69       73.39       73.09    
        72.79       72.49       72.19       71.89       71.58       71.27       70.95       70.64       70.32       70.00    
  36    70.00       71.71       73.24       74.61       75.81       76.87       77.78       78.55       79.19       79.69    
        80.06       80.30       80.42       80.41       80.27       80.01       79.74       79.47       79.20       78.92    
        78.64       78.36       78.08       77.79       77.51       77.22       76.93       76.64       76.34       76.05    
        75.76       75.46       75.17       74.87       74.58       74.28       73.99       73.69       73.39       73.09    
        72.79       72.49       72.19       71.88       71.57       71.26       70.95       70.64       70.32       70.00    
  37    70.00       71.71       73.23       74.60       75.80       76.86       77.77       78.54       79.17       79.67    
        80.04       80.29       80.40       80.39       80.25       79.99       79.72       79.45       79.18       78.91    
        78.63       78.35       78.07       77.78       77.50       77.21       76.92       76.63       76.34       76.05    
        75.76       75.46       75.17       74.87       74.58       74.28       73.99       73.69       73.39       73.09    
        72.79       72.49       72.18       71.88       71.57       71.26       70.95       70.63       70.32       70.00    
  38    70.00       71.70       73.23       74.59       75.79       76.84       77.75       78.52       79.16       79.66    
        80.03       80.27       80.39       80.38       80.24       79.97       79.71       79.44       79.17       78.89    
        78.62       78.34       78.06       77.77       77.49       77.20       76.92       76.63       76.34       76.05    
        75.75       75.46       75.17       74.87       74.58       74.28       73.99       73.69       73.39       73.09    
        72.79       72.49       72.18       71.88       71.57       71.26       70.95       70.63       70.32       70.00    
  39    70.00       71.70       73.22       74.58       75.78       76.84       77.74       78.51       79.14       79.64    
        80.01       80.26       80.37       80.36       80.22       79.96       79.69       79.43       79.15       78.88    
        78.61       78.33       78.05       77.77       77.48       77.20       76.91       76.62       76.33       76.04    
        75.75       75.46       75.17       74.87       74.58       74.28       73.99       73.69       73.39       73.09    
        72.79       72.48       72.18       71.87       71.57       71.26       70.94       70.63       70.32       70.00    
  40    70.00       71.70       73.22       74.58       75.78       76.83       77.73       78.50       79.13       79.63    
        80.00       80.24       80.36       80.35       80.21       79.95       79.68       79.41       79.14       78.87    
        78.60       78.32       78.04       77.76       77.48       77.19       76.91       76.62       76.33       76.04    
        75.75       75.46       75.17       74.87       74.58       74.28       73.98       73.69       73.39       73.09    
        72.79       72.48       72.18       71.87       71.56       71.25       70.94       70.63       70.32       70.00    
  41    70.00       71.70       73.22       74.57       75.77       76.82       77.72       78.49       79.12       79.62    
        79.99       80.23       80.35       80.34       80.20       79.94       79.67       79.40       79.13       78.86    
        78.59       78.31       78.03       77.75       77.47       77.19       76.90       76.62       76.33       76.04    
        75.75       75.46       75.16       74.87       74.58       74.28       73.98       73.69       73.39       73.09    
        72.78       72.48       72.18       71.87       71.56       71.25       70.94       70.63       70.32       70.00    
  42    70.00       71.70       73.21       74.57       75.77       76.81       77.72       78.48       79.11       79.61    
        79.98       80.22       80.34       80.33       80.19       79.93       79.66       79.39       79.12       78.85    
        78.58       78.30       78.02       77.75       77.46       77.18       76.90       76.61       76.32       76.04    
        75.75       75.46       75.16       74.87       74.58       74.28       73.98       73.68       73.39       73.09    
        72.78       72.48       72.18       71.87       71.56       71.25       70.94       70.63       70.32       70.00    
  43    70.00       71.69       73.21       74.57       75.76       76.81       77.71       78.48       79.11       79.60    
        79.97       80.21       80.33       80.32       80.18       79.92       79.65       79.39       79.12       78.84    
        78.57       78.30       78.02       77.74       77.46       77.18       76.89       76.61       76.32       76.03    
        75.74       75.45       75.16       74.87       74.57       74.28       73.98       73.68       73.38       73.08    
        72.78       72.48       72.17       71.87       71.56       71.25       70.94       70.63       70.32       70.00    
  44    70.00       71.69       73.21       74.56       75.76       76.80       77.71       78.47       79.10       79.60    
        79.97       80.21       80.32       80.31       80.17       79.91       79.65       79.38       79.11       78.84    
        78.57       78.29       78.01       77.74       77.46       77.17       76.89       76.61       76.32       76.03    
        75.74       75.45       75.16       74.87       74.57       74.28       73.98       73.68       73.38       73.08    
        72.78       72.48       72.17       71.87       71.56       71.25       70.94       70.63       70.31       70.00    
  45    70.00       71.69       73.21       74.56       75.75       76.80       77.70       78.47       79.09       79.59    
        79.96       80.20       80.32       80.30       80.17       79.90       79.64       79.37       79.10       78.83    
        78.56       78.29       78.01       77.73       77.45       77.17       76.89       76.60       76.32       76.03    
        75.74       75.45       75.16       74.87       74.57       74.28       73.98       73.68       73.38       73.08    
        72.78       72.48       72.17       71.87       71.56       71.25       70.94       70.63       70.31       70.00    
  46    70.00       71.69       73.21       74.56       75.75       76.80       77.70       78.46       79.09       79.59    
        79.96       80.20       80.31       80.30       80.16       79.90       79.63       79.37       79.10       78.83    
        78.56       78.28       78.01       77.73       77.45       77.17       76.88       76.60       76.31       76.03    
        75.74       75.45       75.16       74.87       74.57       74.28       73.98       73.68       73.38       73.08    
        72.78       72.48       72.17       71.87       71.56       71.25       70.94       70.63       70.31       70.00    
  47    70.00       71.69       73.21       74.56       75.75       76.79       77.70       78.46       79.09       79.58    
        79.95       80.19       80.31       80.30       80.16       79.90       79.63       79.36       79.10       78.83    
        78.55       78.28       78.00       77.73       77.45       77.17       76.88       76.60       76.31       76.03    
        75.74       75.45       75.16       74.86       74.57       74.28       73.98       73.68       73.38       73.08    
        72.78       72.48       72.17       71.87       71.56       71.25       70.94       70.63       70.31       70.00    
  48    70.00       71.69       73.21       74.56       75.75       76.79       77.69       78.46       79.08       79.58    
        79.95       80.19       80.30       80.29       80.16       79.89       79.63       79.36       79.09       78.82    
        78.55       78.28       78.00       77.72       77.44       77.16       76.88       76.60       76.31       76.03    
        75.74       75.45       75.16       74.86       74.57       74.27       73.98       73.68       73.38       73.08    
        72.78       72.48       72.17       71.87       71.56       71.25       70.94       70.63       70.31       70.00    
  49    70.00       71.69       73.21       74.55       75.75       76.79       77.69       78.45       79.08       79.58    
        79.95       80.19       80.30       80.29       80.15       79.89       79.63       79.36       79.09       78.82    
        78.55       78.27       78.00       77.72       77.44       77.16       76.88       76.60       76.31       76.02    
        75.74       75.45       75.16       74.86       74.57       74.27       73.98       73.68       73.38       73.08    
        72.78       72.48       72.17       71.87       71.56       71.25       70.94       70.63       70.31       70.00    
  50    70.00       71.69       73.20       74.55       75.75       76.79       77.69       78.45       79.08       79.58    
        79.95       80.19       80.30       80.29       80.15       79.89       79.63       79.36       79.09       78.82    
        78.55       78.27       78.00       77.72       77.44       77.16       76.88       76.60       76.31       76.02    
        75.74       75.45       75.16       74.86       74.57       74.27       73.98       73.68       73.38       73.08    
        72.78       72.48       72.17       71.87       71.56       71.25       70.94       70.63       70.31       70.00    
1
              HEAD IN LAYER   2 AT END OF TIME STEP   1 IN STRESS PERIOD    1
  ---------------------------------------------------------------------------

            1           2           3           4           5           6           7           8           9          10
           11          12          13          14          15          16          17          18          19          20
           21          22          23          24          25          26          27          28          29          30
           31          32          33          34          35          36          37          38          39          40
           41          42          43          44          45          46          47          48          49          50
 ........................................................................................................................
   1    70.00       71.46       72.76       73.90       74.90       75.75       76.47       77.06       77.53       77.87    
        78.11       78.23       78.24       78.14       77.94       77.63       77.34       77.07       76.82       76.59    
        76.36       76.15       75.94       75.74       75.53       75.34       75.14       74.94       74.73       74.53    
        74.32       74.12       73.90       73.69       73.47       73.25       73.03       72.81       72.58       72.35    
        72.12       71.89       71.66       71.43       71.19       70.95       70.72       70.48       70.24       70.00    
   2    70.00       71.46       72.76       73.90       74.89       75.75       76.46       77.05       77.52       77.86    
        78.09       78.21       78.22       78.12       77.92       77.61       77.32       77.06       76.81       76.57    
        76.35       76.14       75.93       75.73       75.53       75.34       75.14       74.94       74.74       74.53    
        74.33       74.12       73.91       73.69       73.47       73.25       73.03       72.81       72.58       72.35    
        72.12       71.89       71.66       71.43       71.19       70.95       70.72       70.48       70.24       70.00    
   3    70.00       71.46       72.76       73.90       74.89       75.73       76.45       77.03       77.49       77.83    
        78.06       78.17       78.18       78.08       77.87       77.57       77.28       77.02       76.78       76.55    
        76.33       76.12       75.92       75.73       75.53       75.33       75.14       74.94       74.74       74.54    
        74.33       74.12       73.91       73.70       73.48       73.26       73.03       72.81       72.58       72.35    
        72.12       71.89       71.66       71.43       71.19       70.95       70.72       70.48       70.24       70.00    
   4    70.00       71.46       72.75       73.89       74.87       75.72       76.43       77.00       77.46       77.79    
        78.01       78.11       78.11       78.01       77.80       77.50       77.22       76.96       76.73       76.51    
        76.30       76.10       75.91       75.72       75.53       75.33       75.14       74.94       74.75       74.54    
        74.34       74.13       73.92       73.70       73.48       73.26       73.04       72.81       72.59       72.36    
        72.13       71.90       71.66       71.43       71.19       70.96       70.72       70.48       70.24       70.00    
   5    70.00       71.46       72.74       73.88       74.86       75.70       76.40       76.97       77.41       77.73    
        77.94       78.03       78.02       77.91       77.70       77.40       77.13       76.89       76.66       76.46    
        76.26       76.07       75.89       75.71       75.52       75.34       75.15       74.95       74.75       74.55    
        74.35       74.14       73.93       73.71       73.49       73.27       73.04       72.82       72.59       72.36    
        72.13       71.90       71.66       71.43       71.19       70.96       70.72       70.48       70.24       70.00    
   6    70.00       71.45       72.74       73.87       74.84       75.67       76.37       76.93       77.36       77.66    
        77.85       77.93       77.90       77.78       77.57       77.27       77.01       76.79       76.58       76.39    
        76.22       76.04       75.87       75.70       75.52       75.34       75.15       74.96       74.77       74.57    
        74.36       74.15       73.94       73.72       73.50       73.28       73.05       72.82       72.60       72.37    
        72.13       71.90       71.67       71.43       71.19       70.96       70.72       70.48       70.24       70.00    
   7    70.00       71.45       72.73       73.85       74.83       75.65       76.33       76.88       77.29       77.58    
        77.74       77.80       77.75       77.61       77.39       77.10       76.86       76.66       76.48       76.32    
        76.17       76.01       75.85       75.69       75.52       75.35       75.16       74.98       74.78       74.58    
        74.38       74.17       73.95       73.73       73.51       73.29       73.06       72.83       72.60       72.37    
        72.14       71.90       71.67       71.43       71.20       70.96       70.72       70.48       70.24       70.00    
   8    70.00       71.45       72.73       73.85       74.81       75.63       76.30       76.83       77.23       77.49    
        77.62       77.64       77.56       77.39       77.16       76.88       76.67       76.51       76.37       76.24    
        76.11       75.98       75.84       75.69       75.53       75.36       75.18       75.00       74.80       74.60    
        74.40       74.19       73.97       73.75       73.53       73.30       73.07       72.84       72.61       72.38    
        72.14       71.91       71.67       71.44       71.20       70.96       70.72       70.48       70.24       70.00    
   9    70.00       71.45       72.72       73.84       74.80       75.61       76.27       76.79       77.16       77.39    
        77.49       77.46       77.32       77.10       76.85       76.59       76.44       76.33       76.25       76.16    
        76.07       75.96       75.84       75.70       75.55       75.38       75.21       75.02       74.83       74.63    
        74.42       74.21       73.99       73.77       73.54       73.31       73.08       72.85       72.62       72.38    
        72.15       71.91       71.67       71.44       71.20       70.96       70.72       70.48       70.24       70.00    
  10    70.00       71.45       72.72       73.84       74.80       75.60       76.26       76.76       77.11       77.30    
        77.35       77.25       77.02       76.71       76.41       76.21       76.15       76.14       76.12       76.09    
        76.03       75.95       75.84       75.72       75.57       75.42       75.24       75.06       74.87       74.66    
        74.45       74.24       74.02       73.79       73.56       73.33       73.09       72.86       72.62       72.39    
        72.15       71.91       71.68       71.44       71.20       70.96       70.72       70.48       70.24       70.00    
  11    70.00       71.45       72.73       73.85       74.81       75.61       76.25       76.74       77.07       77.24    
        77.23       77.04       76.68       76.18       75.72       75.68       75.81       75.94       76.02       76.05    
        76.03       75.97       75.87       75.76       75.62       75.46       75.29       75.10       74.91       74.70    
        74.49       74.27       74.04       73.81       73.58       73.34       73.11       72.87       72.63       72.39    
        72.15       71.92       71.68       71.44       71.20       70.97       70.73       70.48       70.24       70.00    
  12    70.00       71.46       72.74       73.86       74.83       75.63       76.27       76.76       77.07       77.21    
        77.16       76.88       76.33       75.47       74.47       74.97       75.47       75.79       75.97       76.05    
        76.06       76.01       75.93       75.82       75.68       75.52       75.35       75.16       74.96       74.75    
        74.53       74.31       74.08       73.84       73.60       73.36       73.12       72.87       72.63       72.39    
        72.15       71.92       71.68       71.44       71.21       70.97       70.73       70.49       70.24       70.00    
  13    70.00       71.47       72.76       73.89       74.86       75.67       76.32       76.81       77.12       77.26    
        77.18       76.85       76.16       74.76       71.49       74.26       75.31       75.79       76.02       76.12    
        76.14       76.10       76.02       75.90       75.76       75.60       75.42       75.23       75.02       74.81    
        74.58       74.35       74.11       73.87       73.62       73.38       73.13       72.88       72.64       72.39    
        72.15       71.92       71.68       71.44       71.21       70.97       70.73       70.49       70.24       70.00    
  14    70.00       71.48       72.79       73.93       74.91       75.73       76.39       76.89       77.22       77.38    
        77.33       77.07       76.53       75.68       74.69       75.20       75.70       76.02       76.20       76.28    
        76.28       76.23       76.13       76.01       75.86       75.69       75.51       75.31       75.09       74.87    
        74.64       74.40       74.15       73.90       73.65       73.39       73.14       72.88       72.64       72.39    
        72.15       71.92       71.68       71.45       71.21       70.97       70.73       70.49       70.25       70.00    
  15    70.00       71.50       72.82       73.98       74.97       75.81       76.49       77.01       77.37       77.56    
        77.58       77.41       77.07       76.60       76.15       76.13       76.27       76.40       76.48       76.50    
        76.47       76.39       76.28       76.14       75.98       75.80       75.61       75.39       75.17       74.94    
        74.70       74.45       74.20       73.94       73.67       73.41       73.14       72.88       72.63       72.38    
        72.15       71.91       71.68       71.45       71.21       70.98       70.74       70.49       70.25       70.00    
  16    70.00       71.52       72.86       74.04       75.05       75.91       76.61       77.16       77.55       77.79    
        77.87       77.81       77.61       77.33       77.05       76.88       76.84       76.83       76.82       76.78    
        76.71       76.60       76.46       76.30       76.12       75.93       75.72       75.50       75.26       75.02    
        74.77       74.51       74.25       73.97       73.70       73.42       73.14       72.87       72.62       72.37    
        72.13       71.90       71.68       71.45       71.22       70.98       70.74       70.50       70.25       70.00    
  17    70.00       71.54       72.91       74.11       75.14       76.03       76.75       77.33       77.76       78.04    
        78.19       78.20       78.11       77.93       77.71       77.49       77.36       77.27       77.19       77.09    
        76.97       76.83       76.66       76.48       76.28       76.06       75.84       75.61       75.36       75.11    
        74.85       74.58       74.30       74.01       73.72       73.43       73.14       72.85       72.59       72.34    
        72.11       71.89       71.68       71.46       71.23       71.00       70.76       70.51       70.26       70.00    
  18    70.00       71.57       72.96       74.18       75.25       76.15       76.91       77.52       77.98       78.31    
        78.50       78.58       78.55       78.43       78.25       78.01       77.84       77.70       77.57       77.43    
        77.26       77.08       76.88       76.67       76.44       76.21       75.97       75.73       75.47       75.20    
        74.93       74.65       74.36       74.06       73.75       73.43       73.12       72.82       72.54       72.30    
        72.08       71.88       71.68       71.47       71.25       71.01       70.77       70.52       70.26       70.00    
  19    70.00       71.60       73.02       74.27       75.36       76.29       77.08       77.71       78.21       78.58    
        78.81       78.93       78.94       78.86       78.70       78.47       78.28       78.12       77.97       77.79    
        77.57       77.34       77.11       76.87       76.62       76.37       76.11       75.85       75.58       75.31    
        75.02       74.73       74.43       74.11       73.78       73.44       73.09       72.75       72.45       72.23    
        72.04       71.87       71.69       71.49       71.27       71.04       70.80       70.54       70.27       70.00    
  20    70.00       71.63       73.08       74.36       75.48       76.44       77.25       77.92       78.44       78.84    
        79.11       79.26       79.30       79.25       79.11       78.87       78.68       78.52       78.38       78.18    
        77.89       77.61       77.34       77.07       76.80       76.53       76.26       75.99       75.70       75.42    
        75.12       74.82       74.51       74.18       73.82       73.45       73.05       72.64       72.29       72.11    
        71.99       71.86       71.71       71.52       71.31       71.08       70.83       70.56       70.29       70.00    
  21    70.00       71.67       73.16       74.47       75.61       76.60       77.44       78.13       78.68       79.10    
        79.39       79.57       79.64       79.60       79.47       79.24       79.05       78.91       78.87       78.63    
        78.21       77.87       77.56       77.27       76.98       76.70       76.41       76.12       75.83       75.54    
        75.23       74.92       74.60       74.26       73.89       73.48       73.02       72.48       71.94       71.95    
        71.95       71.88       71.76       71.59       71.38       71.14       70.88       70.60       70.31       70.00    
  22    70.00       71.71       73.24       74.59       75.76       76.77       77.63       78.34       78.91       79.35    
        79.67       79.86       79.95       79.92       79.79       79.56       79.36       79.21       79.15       78.90    
        78.46       78.09       77.76       77.45       77.16       76.87       76.57       76.26       75.96       75.66    
        75.35       75.04       74.71       74.37       74.00       73.57       73.05       72.33       71.02       71.80    
        71.98       71.96       71.85       71.68       71.47       71.23       70.95       70.65       70.33       70.00    
  23    70.00       71.77       73.34       74.72       75.92       76.95       77.83       78.56       79.15       79.61    
        79.94       80.15       80.24       80.22       80.09       79.85       79.63       79.43       79.24       78.97    
        78.63       78.28       77.95       77.63       77.34       77.05       76.73       76.41       76.09       75.79    
        75.48       75.17       74.85       74.51       74.15       73.75       73.29       72.76       72.22       72.22    
        72.22       72.14       72.01       71.82       71.60       71.34       71.05       70.73       70.38       70.00    
  24    70.00       71.85       73.46       74.87       76.09       77.15       78.04       78.78       79.39       79.86    
        80.20       80.42       80.52       80.50       80.36       80.12       79.88       79.64       79.40       79.12    
        78.80       78.46       78.12       77.80       77.51       77.26       76.90       76.55       76.23       75.92    
        75.62       75.31       75.01       74.69       74.35       73.99       73.60       73.20       72.84       72.66    
        72.53       72.39       72.21       72.00       71.76       71.49       71.18       70.84       70.44       70.00    
  25    70.00       71.97       73.63       75.06       76.29       77.36       78.26       79.02       79.63       80.11    
        80.46       80.68       80.79       80.77       80.63       80.38       80.12       79.87       79.60       79.32    
        79.00       78.64       78.28       77.94       77.67       77.58       77.05       76.68       76.35       76.05    
        75.76       75.47       75.18       74.88       74.57       74.25       73.93       73.60       73.29       73.06    
        72.86       72.67       72.45       72.22       71.96       71.68       71.36       70.99       70.56       70.00    
  26    70.00       71.87       73.51       74.94       76.19       77.26       78.17       78.94       79.56       80.05    
        80.41       80.64       80.74       80.73       80.59       80.33       80.06       79.80       79.52       79.23    
        78.92       78.59       78.26       77.95       77.66       77.40       77.03       76.69       76.36       76.05    
        75.75       75.46       75.16       74.86       74.56       74.25       73.93       73.63       73.34       73.08    
        72.85       72.62       72.38       72.13       71.85       71.55       71.23       70.86       70.46       70.00    
  27    70.00       71.82       73.43       74.86       76.10       77.18       78.10       78.87       79.50       80.00    
        80.36       80.59       80.70       80.68       80.54       80.28       80.01       79.74       79.46       79.17    
        78.86       78.55       78.24       77.93       77.63       77.33       77.01       76.68       76.36       76.05    
        75.75       75.45       75.15       74.85       74.55       74.25       73.94       73.65       73.36       73.09    
        72.84       72.58       72.32       72.05       71.77       71.46       71.14       70.78       70.40       70.00    
  28    70.00       71.79       73.38       74.80       76.04       77.11       78.04       78.81       79.45       79.95    
        80.31       80.55       80.66       80.64       80.50       80.24       79.97       79.69       79.41       79.12    
        78.82       78.52       78.21       77.91       77.61       77.30       76.99       76.67       76.36       76.05    
        75.75       75.45       75.15       74.85       74.55       74.25       73.95       73.66       73.38       73.10    
        72.83       72.56       72.28       72.00       71.71       71.40       71.08       70.73       70.37       70.00    
  29    70.00       71.77       73.35       74.75       75.98       77.06       77.98       78.76       79.40       79.90    
        80.27       80.51       80.62       80.61       80.47       80.20       79.93       79.65       79.37       79.08    
        78.79       78.49       78.19       77.89       77.59       77.28       76.98       76.67       76.36       76.06    
        75.75       75.45       75.15       74.86       74.56       74.26       73.96       73.67       73.38       73.10    
        72.82       72.54       72.26       71.97       71.67       71.36       71.04       70.70       70.35       70.00    
  30    70.00       71.75       73.32       74.71       75.94       77.02       77.94       78.72       79.36       79.86    
        80.23       80.47       80.58       80.57       80.43       80.16       79.89       79.62       79.34       79.05    
        78.76       78.47       78.17       77.87       77.57       77.27       76.97       76.66       76.36       76.06    
        75.76       75.46       75.16       74.86       74.56       74.27       73.97       73.68       73.39       73.10    
        72.81       72.53       72.24       71.94       71.64       71.33       71.01       70.68       70.34       70.00    
  31    70.00       71.74       73.30       74.69       75.91       76.98       77.90       78.68       79.32       79.82    
        80.19       80.44       80.55       80.54       80.40       80.13       79.86       79.59       79.31       79.02    
        78.74       78.45       78.15       77.86       77.56       77.26       76.96       76.66       76.36       76.06    
        75.76       75.46       75.16       74.86       74.57       74.27       73.98       73.68       73.39       73.10    
        72.81       72.52       72.22       71.92       71.62       71.31       70.99       70.66       70.33       70.00    
  32    70.00       71.73       73.28       74.66       75.88       76.95       77.87       78.65       79.28       79.79    
        80.16       80.40       80.52       80.51       80.37       80.10       79.83       79.56       79.28       79.00    
        78.71       78.43       78.14       77.84       77.55       77.25       76.95       76.65       76.35       76.06    
        75.76       75.46       75.16       74.87       74.57       74.28       73.98       73.69       73.39       73.10    
        72.80       72.51       72.21       71.91       71.60       71.29       70.98       70.65       70.33       70.00    
  33    70.00       71.72       73.27       74.64       75.86       76.92       77.84       78.62       79.25       79.76    
        80.13       80.37       80.49       80.48       80.34       80.07       79.80       79.53       79.26       78.98    
        78.69       78.41       78.12       77.83       77.54       77.24       76.95       76.65       76.35       76.06    
        75.76       75.46       75.17       74.87       74.57       74.28       73.98       73.69       73.39       73.10    
        72.80       72.50       72.20       71.90       71.59       71.28       70.97       70.65       70.32       70.00    
  34    70.00       71.72       73.26       74.63       75.84       76.90       77.82       78.59       79.23       79.73    
        80.10       80.35       80.46       80.45       80.32       80.05       79.78       79.51       79.23       78.96    
        78.68       78.39       78.10       77.82       77.53       77.23       76.94       76.64       76.35       76.05    
        75.76       75.46       75.17       74.87       74.58       74.28       73.98       73.69       73.39       73.10    
        72.80       72.50       72.20       71.89       71.58       71.27       70.96       70.64       70.32       70.00    
  35    70.00       71.71       73.25       74.62       75.83       76.89       77.80       78.57       79.21       79.71    
        80.08       80.33       80.44       80.43       80.29       80.03       79.76       79.49       79.21       78.94    
        78.66       78.38       78.09       77.80       77.52       77.22       76.93       76.64       76.35       76.05    
        75.76       75.46       75.17       74.87       74.58       74.28       73.99       73.69       73.39       73.09    
        72.79       72.49       72.19       71.89       71.58       71.27       70.95       70.64       70.32       70.00    
  36    70.00       71.71       73.24       74.61       75.81       76.87       77.78       78.55       79.19       79.69    
        80.06       80.30       80.42       80.41       80.27       80.01       79.74       79.47       79.20       78.92    
        78.64       78.36       78.08       77.79       77.51       77.22       76.93       76.64       76.34       76.05    
        75.76       75.46       75.17       74.87       74.58       74.28       73.99       73.69       73.39       73.09    
        72.79       72.49       72.19       71.88       71.57       71.26       70.95       70.64       70.32       70.00    
  37    70.00       71.71       73.23       74.60       75.80       76.86       77.77       78.54       79.17       79.67    
        80.04       80.29       80.40       80.39       80.25       79.99       79.72       79.45       79.18       78.91    
        78.63       78.35       78.07       77.78       77.50       77.21       76.92       76.63       76.34       76.05    
        75.76       75.46       75.17       74.87       74.58       74.28       73.99       73.69       73.39       73.09    
        72.79       72.49       72.18       71.88       71.57       71.26       70.95       70.63       70.32       70.00    
  38    70.00       71.70       73.23       74.59       75.79       76.84       77.75       78.52       79.16       79.66    
        80.03       80.27       80.39       80.37       80.24       79.97       79.71       79.44       79.17       78.89    
        78.62       78.34       78.06       77.77       77.49       77.20       76.92       76.63       76.34       76.05    
        75.75       75.46       75.17       74.87       74.58       74.28       73.99       73.69       73.39       73.09    
        72.79       72.49       72.18       71.88       71.57       71.26       70.95       70.63       70.32       70.00    
  39    70.00       71.70       73.22       74.58       75.78       76.84       77.74       78.51       79.14       79.64    
        80.01       80.26       80.37       80.36       80.22       79.96       79.69       79.43       79.15       78.88    
        78.61       78.33       78.05       77.77       77.48       77.20       76.91       76.62       76.33       76.04    
        75.75       75.46       75.17       74.87       74.58       74.28       73.99       73.69       73.39       73.09    
        72.79       72.48       72.18       71.87       71.57       71.26       70.94       70.63       70.32       70.00    
  40    70.00       71.70       73.22       74.58       75.78       76.83       77.73       78.50       79.13       79.63    
        80.00       80.24       80.36       80.35       80.21       79.95       79.68       79.41       79.14       78.87    
        78.60       78.32       78.04       77.76       77.48       77.19       76.91       76.62       76.33       76.04    
        75.75       75.46       75.17       74.87       74.58       74.28       73.98       73.69       73.39       73.09    
        72.79       72.48       72.18       71.87       71.56       71.25       70.94       70.63       70.32       70.00    
  41    70.00       71.70       73.22       74.57       75.77       76.82       77.72       78.49       79.12       79.62    
        79.99       80.23       80.35       80.34       80.20       79.94       79.67       79.40       79.13       78.86    
        78.59       78.31       78.03       77.75       77.47       77.19       76.90       76.62       76.33       76.04    
        75.75       75.46       75.16       74.87       74.58       74.28       73.98       73.69       73.39       73.09    
        72.78       72.48       72.18       71.87       71.56       71.25       70.94       70.63       70.32       70.00    
  42    70.00       71.70       73.21       74.57       75.77       76.81       77.72       78.48       79.11       79.61    
        79.98       80.22       80.34       80.33       80.19       79.93       79.66       79.39       79.12       78.85    
        78.58       78.30       78.02       77.75       77.46       77.18       76.90       76.61       76.32       76.04    
        75.75       75.46       75.16       74.87       74.58       74.28       73.98       73.68       73.39       73.09    
        72.78       72.48       72.18       71.87       71.56       71.25       70.94       70.63       70.32       70.00    
  43    70.00       71.69       73.21       74.56       75.76       76.81       77.71       78.48       79.11       79.60    
        79.97       80.21       80.33       80.32       80.18       79.92       79.65       79.39       79.12       78.84    
        78.57       78.30       78.02       77.74       77.46       77.18       76.89       76.61       76.32       76.03    
        75.74       75.45       75.16       74.87       74.57       74.28       73.98       73.68       73.38       73.08    
        72.78       72.48       72.17       71.87       71.56       71.25       70.94       70.63       70.32       70.00    
  44    70.00       71.69       73.21       74.56       75.76       76.80       77.71       78.47       79.10       79.60    
        79.97       80.21       80.32       80.31       80.17       79.91       79.65       79.38       79.11       78.84    
        78.57       78.29       78.01       77.74       77.46       77.17       76.89       76.61       76.32       76.03    
        75.74       75.45       75.16       74.87       74.57       74.28       73.98       73.68       73.38       73.08    
        72.78       72.48       72.17       71.87       71.56       71.25       70.94       70.63       70.31       70.00    
  45    70.00       71.69       73.21       74.56       75.75       76.80       77.70       78.47       79.09       79.59    
        79.96       80.20       80.32       80.30       80.17       79.90       79.64       79.37       79.10       78.83    
        78.56       78.29       78.01       77.73       77.45       77.17       76.89       76.60       76.32       76.03    
        75.74       75.45       75.16       74.87       74.57       74.28       73.98       73.68       73.38       73.08    
        72.78       72.48       72.17       71.87       71.56       71.25       70.94       70.63       70.31       70.00    
  46    70.00       71.69       73.21       74.56       75.75       76.80       77.70       78.46       79.09       79.59    
        79.96       80.20       80.31       80.30       80.16       79.90       79.63       79.37       79.10       78.83    
        78.56       78.28       78.01       77.73       77.45       77.17       76.88       76.60       76.31       76.03    
        75.74       75.45       75.16       74.87       74.57       74.28       73.98       73.68       73.38       73.08    
        72.78       72.48       72.17       71.87       71.56       71.25       70.94       70.63       70.31       70.00    
  47    70.00       71.69       73.21       74.56       75.75       76.79       77.70       78.46       79.09       79.58    
        79.95       80.19       80.31       80.30       80.16       79.90       79.63       79.36       79.10       78.83    
        78.55       78.28       78.00       77.73       77.45       77.17       76.88       76.60       76.31       76.03    
        75.74       75.45       75.16       74.86       74.57       74.28       73.98       73.68       73.38       73.08    
        72.78       72.48       72.17       71.87       71.56       71.25       70.94       70.63       70.31       70.00    
  48    70.00       71.69       73.21       74.56       75.75       76.79       77.69       78.46       79.08       79.58    
        79.95       80.19       80.30       80.29       80.16       79.89       79.63       79.36       79.09       78.82    
        78.55       78.28       78.00       77.72       77.44       77.16       76.88       76.60       76.31       76.03    
        75.74       75.45       75.16       74.86       74.57       74.27       73.98       73.68       73.38       73.08    
        72.78       72.48       72.17       71.87       71.56       71.25       70.94       70.63       70.31       70.00    
  49    70.00       71.69       73.20       74.55       75.75       76.79       77.69       78.45       79.08       79.58    
        79.95       80.19       80.30       80.29       80.15       79.89       79.63       79.36       79.09       78.82    
        78.55       78.27       78.00       77.72       77.44       77.16       76.88       76.60       76.31       76.02    
        75.74       75.45       75.16       74.86       74.57       74.27       73.98       73.68       73.38       73.08    
        72.78       72.48       72.17       71.87       71.56       71.25       70.94       70.63       70.31       70.00    
  50    70.00       71.69       73.20       74.55       75.75       76.79       77.69       78.45       79.08       79.58    
        79.95       80.19       80.30       80.29       80.15       79.89       79.63       79.36       79.09       78.82    
        78.55       78.27       78.00       77.72       77.44       77.16       76.88       76.60       76.31       76.02    
        75.74       75.45       75.16       74.86       74.57       74.27       73.98       73.68       73.38       73.08    
        72.78       72.48       72.17       71.87       71.56       71.25       70.94       70.63       70.31       70.00    
1
              HEAD IN LAYER   3 AT END OF TIME STEP   1 IN STRESS PERIOD    1
  ---------------------------------------------------------------------------

            1           2           3           4           5           6           7           8           9          10
           11          12          13          14          15          16          17          18          19          20
           21          22          23          24          25          26          27          28          29          30
[...]
        78.63       78.28       77.95       77.63       77.34       77.05       76.73       76.41       76.09       75.79    
        75.48       75.17       74.85       74.51       74.15       73.75       73.29       72.76       72.22       72.22    
        72.22       72.14       72.01       71.82       71.60       71.34       71.05       70.73       70.38       70.00    
  24    70.00       71.85       73.46       74.87       76.09       77.15       78.04       78.78       79.39       79.86    
        80.20       80.42       80.52       80.50       80.36       80.12       79.88       79.64       79.40       79.12    
        78.80       78.46       78.12       77.80       77.51       77.26       76.90       76.55       76.23       75.92    
        75.62       75.31       75.01       74.69       74.35       73.99       73.60       73.20       72.84       72.66    
        72.53       72.39       72.21       72.00       71.76       71.49       71.18       70.84       70.44       70.00    
  25    70.00       71.97       73.63       75.06       76.29       77.36       78.26       79.02       79.63       80.11    
        80.46       80.68       80.79       80.77       80.63       80.38       80.12       79.87       79.60       79.32    
        79.00       78.64       78.28       77.94       77.67       77.58       77.05       76.68       76.35       76.05    
        75.76       75.47       75.18       74.88       74.57       74.25       73.93       73.60       73.29       73.06    
        72.86       72.66       72.45       72.22       71.96       71.68       71.36       70.99       70.56       70.00    
  26    70.00       71.87       73.51       74.94       76.19       77.26       78.17       78.94       79.56       80.05    
        80.41       80.64       80.74       80.73       80.59       80.33       80.06       79.80       79.52       79.23    
        78.92       78.59       78.26       77.95       77.66       77.40       77.03       76.69       76.36       76.05    
        75.75       75.46       75.16       74.86       74.56       74.25       73.93       73.63       73.34       73.08    
        72.85       72.62       72.38       72.13       71.85       71.55       71.23       70.86       70.46       70.00    
  27    70.00       71.82       73.43       74.86       76.10       77.18       78.10       78.87       79.50       80.00    
        80.36       80.59       80.70       80.68       80.54       80.28       80.01       79.74       79.46       79.17    
        78.86       78.55       78.24       77.93       77.63       77.33       77.01       76.68       76.36       76.05    
        75.75       75.45       75.15       74.85       74.55       74.25       73.94       73.65       73.36       73.09    
        72.84       72.58       72.32       72.05       71.77       71.46       71.14       70.78       70.40       70.00    
  28    70.00       71.79       73.38       74.80       76.04       77.11       78.04       78.81       79.45       79.95    
        80.31       80.55       80.66       80.64       80.50       80.24       79.97       79.69       79.41       79.12    
        78.82       78.52       78.21       77.91       77.61       77.30       76.99       76.67       76.36       76.05    
        75.75       75.45       75.15       74.85       74.55       74.25       73.95       73.66       73.38       73.10    
        72.83       72.56       72.28       72.00       71.71       71.40       71.08       70.73       70.37       70.00    
  29    70.00       71.76       73.35       74.75       75.98       77.06       77.98       78.76       79.40       79.90    
        80.27       80.51       80.62       80.61       80.47       80.20       79.93       79.65       79.37       79.08    
        78.79       78.49       78.19       77.89       77.59       77.28       76.98       76.67       76.36       76.06    
        75.75       75.45       75.15       74.86       74.56       74.26       73.96       73.67       73.38       73.10    
        72.82       72.54       72.26       71.97       71.67       71.36       71.04       70.70       70.35       70.00    
  30    70.00       71.75       73.32       74.71       75.94       77.02       77.94       78.72       79.35       79.86    
        80.23       80.47       80.58       80.57       80.43       80.16       79.89       79.62       79.34       79.05    
        78.76       78.47       78.17       77.87       77.57       77.27       76.97       76.66       76.36       76.06    
        75.76       75.46       75.16       74.86       74.56       74.27       73.97       73.68       73.39       73.10    
        72.81       72.53       72.24       71.94       71.64       71.33       71.01       70.68       70.34       70.00    
  31    70.00       71.74       73.30       74.69       75.91       76.98       77.90       78.68       79.32       79.82    
        80.19       80.43       80.55       80.54       80.40       80.13       79.86       79.59       79.31       79.02    
        78.74       78.45       78.15       77.86       77.56       77.26       76.96       76.66       76.36       76.06    
        75.76       75.46       75.16       74.86       74.57       74.27       73.98       73.68       73.39       73.10    
        72.81       72.52       72.22       71.92       71.62       71.31       70.99       70.66       70.33       70.00    
  32    70.00       71.73       73.28       74.66       75.88       76.95       77.87       78.65       79.28       79.79    
        80.16       80.40       80.52       80.51       80.37       80.10       79.83       79.56       79.28       79.00    
        78.71       78.43       78.14       77.84       77.55       77.25       76.95       76.65       76.35       76.06    
        75.76       75.46       75.16       74.87       74.57       74.28       73.98       73.69       73.39       73.10    
        72.80       72.51       72.21       71.91       71.60       71.29       70.98       70.65       70.33       70.00    
  33    70.00       71.72       73.27       74.64       75.86       76.92       77.84       78.62       79.25       79.76    
        80.13       80.37       80.49       80.48       80.34       80.07       79.80       79.53       79.26       78.98    
        78.69       78.41       78.12       77.83       77.54       77.24       76.95       76.65       76.35       76.06    
        75.76       75.46       75.17       74.87       74.57       74.28       73.98       73.69       73.39       73.10    
        72.80       72.50       72.20       71.90       71.59       71.28       70.97       70.65       70.32       70.00    
  34    70.00       71.72       73.26       74.63       75.84       76.90       77.82       78.59       79.23       79.73    
        80.10       80.35       80.46       80.45       80.32       80.05       79.78       79.51       79.23       78.96    
        78.68       78.39       78.10       77.82       77.53       77.23       76.94       76.64       76.35       76.05    
        75.76       75.46       75.17       74.87       74.58       74.28       73.98       73.69       73.39       73.10    
        72.80       72.50       72.20       71.89       71.58       71.27       70.96       70.64       70.32       70.00    
  35    70.00       71.71       73.25       74.62       75.83       76.89       77.80       78.57       79.21       79.71    
        80.08       80.33       80.44       80.43       80.29       80.03       79.76       79.49       79.21       78.94    
        78.66       78.38       78.09       77.80       77.52       77.22       76.93       76.64       76.35       76.05    
        75.76       75.46       75.17       74.87       74.58       74.28       73.99       73.69       73.39       73.09    
        72.79       72.49       72.19       71.89       71.58       71.27       70.95       70.64       70.32       70.00    
  36    70.00       71.71       73.24       74.61       75.81       76.87       77.78       78.55       79.19       79.69    
        80.06       80.30       80.42       80.41       80.27       80.01       79.74       79.47       79.20       78.92    
        78.64       78.36       78.08       77.79       77.51       77.22       76.93       76.64       76.34       76.05    
        75.76       75.46       75.17       74.87       74.58       74.28       73.99       73.69       73.39       73.09    
        72.79       72.49       72.19       71.88       71.57       71.26       70.95       70.64       70.32       70.00    
  37    70.00       71.71       73.23       74.60       75.80       76.86       77.77       78.54       79.17       79.67    
        80.04       80.29       80.40       80.39       80.25       79.99       79.72       79.45       79.18       78.91    
        78.63       78.35       78.07       77.78       77.50       77.21       76.92       76.63       76.34       76.05    
        75.76       75.46       75.17       74.87       74.58       74.28       73.99       73.69       73.39       73.09    
        72.79       72.49       72.18       71.88       71.57       71.26       70.95       70.63       70.32       70.00    
  38    70.00       71.70       73.23       74.59       75.79       76.84       77.75       78.52       79.15       79.66    
        80.03       80.27       80.39       80.37       80.24       79.97       79.71       79.44       79.17       78.89    
        78.62       78.34       78.06       77.77       77.49       77.20       76.92       76.63       76.34       76.05    
        75.75       75.46       75.17       74.87       74.58       74.28       73.99       73.69       73.39       73.09    
        72.79       72.49       72.18       71.88       71.57       71.26       70.95       70.63       70.32       70.00    
  39    70.00       71.70       73.22       74.58       75.78       76.83       77.74       78.51       79.14       79.64    
        80.01       80.26       80.37       80.36       80.22       79.96       79.69       79.43       79.15       78.88    
        78.61       78.33       78.05       77.77       77.48       77.20       76.91       76.62       76.33       76.04    
        75.75       75.46       75.17       74.87       74.58       74.28       73.99       73.69       73.39       73.09    
        72.79       72.48       72.18       71.87       71.57       71.26       70.94       70.63       70.32       70.00    
  40    70.00       71.70       73.22       74.58       75.78       76.83       77.73       78.50       79.13       79.63    
        80.00       80.24       80.36       80.35       80.21       79.95       79.68       79.41       79.14       78.87    
        78.60       78.32       78.04       77.76       77.48       77.19       76.91       76.62       76.33       76.04    
        75.75       75.46       75.17       74.87       74.58       74.28       73.98       73.69       73.39       73.09    
        72.79       72.48       72.18       71.87       71.56       71.25       70.94       70.63       70.32       70.00    
  41    70.00       71.70       73.22       74.57       75.77       76.82       77.72       78.49       79.12       79.62    
        79.99       80.23       80.35       80.34       80.20       79.94       79.67       79.40       79.13       78.86    
        78.59       78.31       78.03       77.75       77.47       77.19       76.90       76.62       76.33       76.04    
        75.75       75.46       75.16       74.87       74.58       74.28       73.98       73.69       73.39       73.09    
        72.78       72.48       72.18       71.87       71.56       71.25       70.94       70.63       70.32       70.00    
  42    70.00       71.70       73.21       74.57       75.77       76.81       77.72       78.48       79.11       79.61    
        79.98       80.22       80.34       80.33       80.19       79.93       79.66       79.39       79.12       78.85    
        78.58       78.30       78.02       77.75       77.46       77.18       76.90       76.61       76.32       76.04    
        75.75       75.46       75.16       74.87       74.58       74.28       73.98       73.68       73.39       73.09    
        72.78       72.48       72.18       71.87       71.56       71.25       70.94       70.63       70.32       70.00    
  43    70.00       71.69       73.21       74.56       75.76       76.81       77.71       78.48       79.11       79.60    
        79.97       80.21       80.33       80.32       80.18       79.92       79.65       79.39       79.12       78.84    
        78.57       78.30       78.02       77.74       77.46       77.18       76.89       76.61       76.32       76.03    
        75.74       75.45       75.16       74.87       74.57       74.28       73.98       73.68       73.38       73.08    
        72.78       72.48       72.17       71.87       71.56       71.25       70.94       70.63       70.32       70.00    
  44    70.00       71.69       73.21       74.56       75.76       76.80       77.71       78.47       79.10       79.60    
        79.97       80.21       80.32       80.31       80.17       79.91       79.65       79.38       79.11       78.84    
        78.57       78.29       78.01       77.74       77.46       77.17       76.89       76.61       76.32       76.03    
        75.74       75.45       75.16       74.87       74.57       74.28       73.98       73.68       73.38       73.08    
        72.78       72.48       72.17       71.87       71.56       71.25       70.94       70.63       70.31       70.00    
  45    70.00       71.69       73.21       74.56       75.75       76.80       77.70       78.46       79.09       79.59    
        79.96       80.20       80.32       80.30       80.17       79.90       79.64       79.37       79.10       78.83    
        78.56       78.29       78.01       77.73       77.45       77.17       76.89       76.60       76.32       76.03    
        75.74       75.45       75.16       74.87       74.57       74.28       73.98       73.68       73.38       73.08    
        72.78       72.48       72.17       71.87       71.56       71.25       70.94       70.63       70.31       70.00    
  46    70.00       71.69       73.21       74.56       75.75       76.80       77.70       78.46       79.09       79.59    
        79.95       80.20       80.31       80.30       80.16       79.90       79.63       79.37       79.10       78.83    
        78.56       78.28       78.01       77.73       77.45       77.17       76.88       76.60       76.31       76.03    
        75.74       75.45       75.16       74.87       74.57       74.28       73.98       73.68       73.38       73.08    
        72.78       72.48       72.17       71.87       71.56       71.25       70.94       70.63       70.31       70.00    
  47    70.00       71.69       73.21       74.56       75.75       76.79       77.70       78.46       79.09       79.58    
        79.95       80.19       80.31       80.30       80.16       79.90       79.63       79.36       79.10       78.83    
        78.55       78.28       78.00       77.73       77.45       77.17       76.88       76.60       76.31       76.03    
        75.74       75.45       75.16       74.86       74.57       74.28       73.98       73.68       73.38       73.08    
        72.78       72.48       72.17       71.87       71.56       71.25       70.94       70.63       70.31       70.00    
  48    70.00       71.69       73.21       74.55       75.75       76.79       77.69       78.46       79.08       79.58    
        79.95       80.19       80.30       80.29       80.16       79.89       79.63       79.36       79.09       78.82    
        78.55       78.28       78.00       77.72       77.44       77.16       76.88       76.60       76.31       76.03    
        75.74       75.45       75.16       74.86       74.57       74.27       73.98       73.68       73.38       73.08    
        72.78       72.48       72.17       71.87       71.56       71.25       70.94       70.63       70.31       70.00    
  49    70.00       71.69       73.20       74.55       75.75       76.79       77.69       78.45       79.08       79.58    
        79.95       80.19       80.30       80.29       80.15       79.89       79.63       79.36       79.09       78.82    
        78.55       78.27       78.00       77.72       77.44       77.16       76.88       76.60       76.31       76.02    
        75.74       75.45       75.16       74.86       74.57       74.27       73.98       73.68       73.38       73.08    
        72.78       72.48       72.17       71.87       71.56       71.25       70.94       70.63       70.31       70.00    
  50    70.00       71.69       73.20       74.55       75.75       76.79       77.69       78.45       79.08       79.58    
        79.95       80.19       80.30       80.29       80.15       79.89       79.63       79.36       79.09       78.82    
        78.55       78.27       78.00       77.72       77.44       77.16       76.88       76.60       76.31       76.02    
        75.74       75.45       75.16       74.86       74.57       74.27       73.98       73.68       73.38       73.08    
        72.78       72.48       72.17       71.87       71.56       71.25       70.94       70.63       70.31       70.00    

 HEAD WILL BE SAVED ON UNIT   51 AT END OF TIME STEP    1, STRESS PERIOD    1

 DRAWDOWN WILL BE SAVED ON UNIT   52 AT END OF TIME STEP    1, STRESS PERIOD    1
1
  VOLUMETRIC BUDGET FOR ENTIRE MODEL AT END OF TIME STEP    1, STRESS PERIOD   1
  ------------------------------------------------------------------------------

     CUMULATIVE VOLUMES      L**3       RATES FOR THIS TIME STEP      L**3/T
     ------------------                 ------------------------

           IN:                                      IN:
           ---                                      ---
             STORAGE =           0.0000               STORAGE =           0.0000
       CONSTANT HEAD =           0.0000         CONSTANT HEAD =           0.0000
               WELLS =         375.0000                 WELLS =         375.0000
       RIVER LEAKAGE =        4913.6729         RIVER LEAKAGE =        4913.6729
                  ET =           0.0000                    ET =           0.0000
            RECHARGE =       35599.9961              RECHARGE =       35599.9961

            TOTAL IN =       40888.6680              TOTAL IN =       40888.6680

          OUT:                                     OUT:
          ----                                     ----
             STORAGE =           0.0000               STORAGE =           0.0000
       CONSTANT HEAD =       34292.9883         CONSTANT HEAD =       34292.9883
               WELLS =        6000.0000                 WELLS =        6000.0000
       RIVER LEAKAGE =          17.3734         RIVER LEAKAGE =          17.3734
                  ET =         578.2736                    ET =         578.2736
            RECHARGE =           0.0000              RECHARGE =           0.0000

           TOTAL OUT =       40888.6367             TOTAL OUT =       40888.6367

            IN - OUT =       3.1250E-02              IN - OUT =       3.1250E-02

 PERCENT DISCREPANCY =           0.00     PERCENT DISCREPANCY =           0.00






         TIME SUMMARY AT END OF TIME STEP    1 IN STRESS PERIOD    1
                    SECONDS     MINUTES      HOURS       DAYS        YEARS
                    -----------------------------------------------------------
   TIME STEP LENGTH  86400.      1440.0      24.000      1.0000     2.73785E-03
 STRESS PERIOD TIME  86400.      1440.0      24.000      1.0000     2.73785E-03
         TOTAL TIME  86400.      1440.0      24.000      1.0000     2.73785E-03
1

 Run end date and time (yyyy/mm/dd hh:mm:ss): 2026/02/25  7:18:07
 Elapsed run time:  8.087 Seconds

