                                  MODFLOW-2005     
      U.S. GEOLOGICAL SURVEY MODULAR FINITE-DIFFERENCE GROUND-WATER FLOW MODEL
                            VERSION 1.12.00 2/3/2017

 LIST FILE: Wildcat_worst.list
                         UNIT    2

 OPENING Wildcat_worst.dis
 FILE TYPE:DIS   UNIT   11   STATUS:OLD    
 FORMAT:FORMATTED              ACCESS:SEQUENTIAL          

 OPENING Wildcat_worst.bas
 FILE TYPE:BAS6   UNIT   13   STATUS:OLD    
 FORMAT:FORMATTED              ACCESS:SEQUENTIAL          

 OPENING Wildcat_worst.lpf
 FILE TYPE:LPF   UNIT   15   STATUS:OLD    
 FORMAT:FORMATTED              ACCESS:SEQUENTIAL          

 OPENING Wildcat_worst.rch
 FILE TYPE:RCH   UNIT   19   STATUS:OLD    
 FORMAT:FORMATTED              ACCESS:SEQUENTIAL          

 OPENING Wildcat_worst.wel
 FILE TYPE:WEL   UNIT   20   STATUS:OLD    
 FORMAT:FORMATTED              ACCESS:SEQUENTIAL          

 OPENING Wildcat_worst.pcg
 FILE TYPE:PCG   UNIT   27   STATUS:OLD    
 FORMAT:FORMATTED              ACCESS:SEQUENTIAL          

 OPENING Wildcat_worst.oc
 FILE TYPE:OC   UNIT   14   STATUS:OLD    
 FORMAT:FORMATTED              ACCESS:SEQUENTIAL          

 OPENING Wildcat_worst.cbc
 FILE TYPE:DATA(BINARY)   UNIT   53   STATUS:REPLACE
 FORMAT:UNFORMATTED            ACCESS:STREAM              

 OPENING Wildcat_worst.hds
 FILE TYPE:DATA(BINARY)   UNIT   51   STATUS:REPLACE
 FORMAT:UNFORMATTED            ACCESS:STREAM              

 BAS -- BASIC PACKAGE, VERSION 7, 5/2/2005 INPUT READ FROM UNIT   13
 
 MODFLOW was compiled using mixed precision
 Precision of REAL variables:           6
 Precision of DOUBLE PRECISION variables:          15

 DISCRETIZATION INPUT DATA READ FROM UNIT   11
 # DIS package for MODFLOW-2005 generated by Flopy 3.10.0
    1 LAYERS        80 ROWS        80 COLUMNS
    1 STRESS PERIOD(S) IN SIMULATION
 MODEL TIME UNIT IS DAYS
 MODEL LENGTH UNIT IS METERS
  Confining bed flag for each layer:
   0

                     DELR =   50.0000    

                     DELC =   50.0000    

 TOP ELEVATION OF LAYER 1 =   250.000    

   MODEL LAYER BOTTOM EL. =   0.00000     FOR LAYER   1


 STRESS PERIOD     LENGTH       TIME STEPS     MULTIPLIER FOR DELT    SS FLAG
 ----------------------------------------------------------------------------
        1         1.000000          1                    1.000         SS

 STEADY-STATE SIMULATION



 
 # BAS6 package for MODFLOW-2005 generated by Flopy 3.10.0                       
 THE FREE FORMAT OPTION HAS BEEN SELECTED



                     BOUNDARY ARRAY FOR LAYER   1
 READING ON UNIT   13 WITH FORMAT: (80I10)             

 AQUIFER HEAD WILL BE SET TO  -999.99     AT ALL NO-FLOW NODES (IBOUND=0).



                       INITIAL HEAD FOR LAYER   1
 READING ON UNIT   13 WITH FORMAT: (80E15.6)           
 # OC package for MODFLOW-2005 generated by Flopy 3.10.0

 OUTPUT CONTROL IS SPECIFIED ONLY AT TIME STEPS FOR WHICH OUTPUT IS DESIRED
 COMPACT CELL-BY-CELL BUDGET FILES WILL BE WRITTEN
 AUXILIARY DATA WILL BE SAVED IN CELL-BY-CELL BUDGET FILES
 HEAD PRINT FORMAT CODE IS   0    DRAWDOWN PRINT FORMAT CODE IS   0
 HEADS WILL BE SAVED ON UNIT   51    DRAWDOWNS WILL BE SAVED ON UNIT    0

 LPF -- LAYER-PROPERTY FLOW PACKAGE, VERSION 7, 5/2/2005
         INPUT READ FROM UNIT   15
 # LPF package for MODFLOW-2005 generated by Flopy 3.10.0
 CELL-BY-CELL FLOWS WILL BE SAVED ON UNIT   53
 HEAD AT CELLS THAT CONVERT TO DRY= -1.00000E+30
 No named parameters
 STORAGECOEFFICIENT OPTION:
 Read storage coefficient rather than specific storage

   LAYER FLAGS:
 LAYER       LAYTYP        LAYAVG         CHANI        LAYVKA        LAYWET
 ---------------------------------------------------------------------------
    1             1             0     1.000E+00             0             0

   INTERPRETATION OF LAYER FLAGS:
                        INTERBLOCK     HORIZONTAL    DATA IN
         LAYER TYPE   TRANSMISSIVITY   ANISOTROPY   ARRAY VKA   WETTABILITY
 LAYER      (LAYTYP)      (LAYAVG)       (CHANI)      (LAYVKA)      (LAYWET)
 ---------------------------------------------------------------------------
    1   CONVERTIBLE      HARMONIC     1.000E+00    VERTICAL K  NON-WETTABLE

 WETTING CAPABILITY IS NOT ACTIVE IN ANY LAYER



              HYD. COND. ALONG ROWS FOR LAYER   1
 READING ON UNIT   15 WITH FORMAT: (80E15.6)           

      VERTICAL HYD. COND. =   1.00000     FOR LAYER   1

 WEL -- WELL PACKAGE, VERSION 7, 5/2/2005 INPUT READ FROM UNIT   20
 # WEL package for MODFLOW-2005 generated by Flopy 3.10.0
 No named parameters
 MAXIMUM OF      3 ACTIVE WELLS AT ONE TIME


     0 Well parameters

 RCH -- RECHARGE PACKAGE, VERSION 7, 5/2/2005 INPUT READ FROM UNIT   19
 # RCH package for MODFLOW-2005 generated by Flopy 3.10.0
 No named parameters
 OPTION 3 -- RECHARGE TO HIGHEST ACTIVE NODE IN EACH VERTICAL COLUMN
 CELL-BY-CELL FLOWS WILL BE SAVED ON UNIT   53


     0 Recharge parameters

 PCG -- CONJUGATE-GRADIENT SOLUTION PACKAGE, VERSION 7, 5/2/2005
 # PCG package for MODFLOW-2005 generated by Flopy 3.10.0
 MAXIMUM OF     50 CALLS OF SOLUTION ROUTINE
 MAXIMUM OF     30 INTERNAL ITERATIONS PER CALL TO SOLUTION ROUTINE
 MATRIX PRECONDITIONING TYPE :    1



                                    SOLUTION BY THE CONJUGATE-GRADIENT METHOD
                                   -------------------------------------------
                    MAXIMUM NUMBER OF CALLS TO PCG ROUTINE =       50
                        MAXIMUM ITERATIONS PER CALL TO PCG =       30
                               MATRIX PRECONDITIONING TYPE =        1
        RELAXATION FACTOR (ONLY USED WITH PRECOND. TYPE 1) =    0.98000E+00
 PARAMETER OF POLYNOMIAL PRECOND. = 2 (2) OR IS CALCULATED :        0
                         HEAD CHANGE CRITERION FOR CLOSURE =    0.10000E-04
                     RESIDUAL CHANGE CRITERION FOR CLOSURE =    0.10000E-03
            PCG HEAD AND RESIDUAL CHANGE PRINTOUT INTERVAL =      999
     PRINTING FROM SOLVER IS LIMITED(1) OR SUPPRESSED (>1) =        3
                            STEADY-STATE DAMPING PARAMETER =    0.10000E+01
                               TRANSIENT DAMPING PARAMETER =    0.10000E+01
1
                            STRESS PERIOD NO.    1, LENGTH =   1.000000    
                            -----------------------------------------------

                              NUMBER OF TIME STEPS =     1

                               MULTIPLIER FOR DELT =     1.000

                            INITIAL TIME STEP SIZE =   1.000000    

 WELL NO.  LAYER   ROW   COL   STRESS RATE         
 --------------------------------------------------
      1      1     32     21      -348.1    
      2      1     31     31      -5231.    
      3      1     39     31      -5231.    

      3 WELLS



                           RECHARGE
 READING ON UNIT   19 WITH FORMAT: (80E15.6)           
 
 SOLVING FOR HEAD 

 OUTPUT CONTROL FOR STRESS PERIOD    1   TIME STEP    1
    PRINT HEAD FOR ALL LAYERS
    PRINT BUDGET
    SAVE HEAD FOR ALL LAYERS
    SAVE BUDGET
 UBDSV2 SAVING "   CONSTANT HEAD" ON UNIT  53 AT TIME STEP  1, STRESS PERIOD   1
 UBDSV1 SAVING "FLOW RIGHT FACE " ON UNIT  53 AT TIME STEP  1, STRESS PERIOD   1
 UBDSV1 SAVING "FLOW FRONT FACE " ON UNIT  53 AT TIME STEP  1, STRESS PERIOD   1
 UBDSV3 SAVING "        RECHARGE" ON UNIT  53 AT TIME STEP  1, STRESS PERIOD   1
1
              HEAD IN LAYER   1 AT END OF TIME STEP   1 IN STRESS PERIOD    1
  ---------------------------------------------------------------------------

            1           2           3           4           5           6           7           8           9          10
           11          12          13          14          15          16          17          18          19          20
           21          22          23          24          25          26          27          28          29          30
           31          32          33          34          35          36          37          38          39          40
           41          42          43          44          45          46          47          48          49          50
           51          52          53          54          55          56          57          58          59          60
           61          62          63          64          65          66          67          68          69          70
           71          72          73          74          75          76          77          78          79          80
 ........................................................................................................................
   1    258.0       257.0       255.9       254.9       253.8       252.8       251.7       250.6       249.6       248.5    
        247.4       246.4       245.3       244.2       243.1       242.1       241.0       239.9       238.8       237.8    
        236.7       235.7       234.6       233.6       232.5       231.5       230.5       229.5       228.5       227.5    
        226.5       225.5       224.6       223.6       222.7       221.7       220.8       219.9       219.0       218.1    
        217.2       216.3       215.5       214.6       213.7       212.9       212.1       211.2       210.4       209.6    
        208.7       207.9       207.1       206.3       205.5       204.6       203.8       203.0       202.2       201.4    
        200.6       199.8       199.0       198.1       197.3       196.5       195.7       194.9       194.1       193.2    
        192.4       191.6       190.8       189.9       189.1       188.3       187.5       186.6       185.8       185.0    
   2    258.0       257.0       255.9       254.9       253.8       252.8       251.7       250.6       249.6       248.5    
        247.4       246.4       245.3       244.2       243.1       242.0       241.0       239.9       238.8       237.8    
        236.7       235.6       234.6       233.6       232.5       231.5       230.5       229.5       228.5       227.5    
        226.5       225.5       224.5       223.6       222.6       221.7       220.8       219.9       219.0       218.1    
        217.2       216.3       215.5       214.6       213.7       212.9       212.0       211.2       210.4       209.5    
        208.7       207.9       207.1       206.3       205.4       204.6       203.8       203.0       202.2       201.4    
        200.6       199.8       199.0       198.1       197.3       196.5       195.7       194.9       194.1       193.2    
        192.4       191.6       190.8       189.9       189.1       188.3       187.5       186.6       185.8       185.0    
   3    258.1       257.0       256.0       254.9       253.8       252.8       251.7       250.6       249.6       248.5    
        247.4       246.3       245.3       244.2       243.1       242.0       241.0       239.9       238.8       237.7    
        236.7       235.6       234.6       233.5       232.5       231.5       230.4       229.4       228.4       227.4    
        226.4       225.5       224.5       223.6       222.6       221.7       220.8       219.9       219.0       218.1    
        217.2       216.3       215.4       214.6       213.7       212.9       212.0       211.2       210.4       209.5    
        208.7       207.9       207.1       206.3       205.4       204.6       203.8       203.0       202.2       201.4    
        200.6       199.8       199.0       198.1       197.3       196.5       195.7       194.9       194.1       193.2    
        192.4       191.6       190.8       189.9       189.1       188.3       187.4       186.6       185.8       184.9    
   4    258.1       257.0       256.0       254.9       253.8       252.8       251.7       250.6       249.6       248.5    
        247.4       246.3       245.3       244.2       243.1       242.0       240.9       239.9       238.8       237.7    
        236.6       235.6       234.5       233.5       232.4       231.4       230.4       229.4       228.4       227.4    
        226.4       225.4       224.5       223.5       222.6       221.6       220.7       219.8       218.9       218.0    
        217.1       216.3       215.4       214.5       213.7       212.8       212.0       211.2       210.3       209.5    
        208.7       207.9       207.0       206.2       205.4       204.6       203.8       203.0       202.2       201.4    
        200.6       199.7       198.9       198.1       197.3       196.5       195.7       194.9       194.0       193.2    
        192.4       191.6       190.8       189.9       189.1       188.3       187.4       186.6       185.8       184.9    
   5    258.1       257.1       256.0       254.9       253.9       252.8       251.7       250.6       249.6       248.5    
        247.4       246.3       245.2       244.1       243.1       242.0       240.9       239.8       238.7       237.7    
        236.6       235.5       234.5       233.4       232.4       231.4       230.3       229.3       228.3       227.3    
        226.3       225.4       224.4       223.5       222.5       221.6       220.7       219.8       218.9       218.0    
        217.1       216.2       215.3       214.5       213.6       212.8       212.0       211.1       210.3       209.5    
        208.7       207.8       207.0       206.2       205.4       204.6       203.8       203.0       202.2       201.4    
        200.5       199.7       198.9       198.1       197.3       196.5       195.7       194.9       194.0       193.2    
        192.4       191.6       190.7       189.9       189.1       188.2       187.4       186.6       185.7       184.9    
   6    258.2       257.1       256.0       254.9       253.9       252.8       251.7       250.6       249.5       248.5    
        247.4       246.3       245.2       244.1       243.0       241.9       240.9       239.8       238.7       237.6    
        236.5       235.5       234.4       233.4       232.3       231.3       230.3       229.2       228.2       227.2    
        226.3       225.3       224.3       223.4       222.4       221.5       220.6       219.7       218.8       217.9    
        217.0       216.1       215.3       214.4       213.6       212.7       211.9       211.1       210.3       209.4    
        208.6       207.8       207.0       206.2       205.4       204.6       203.8       202.9       202.1       201.3    
        200.5       199.7       198.9       198.1       197.3       196.5       195.7       194.8       194.0       193.2    
        192.4       191.6       190.7       189.9       189.1       188.2       187.4       186.5       185.7       184.8    
   7    258.2       257.1       256.0       255.0       253.9       252.8       251.7       250.6       249.5       248.4    
        247.4       246.3       245.2       244.1       243.0       241.9       240.8       239.7       238.6       237.6    
        236.5       235.4       234.3       233.3       232.2       231.2       230.2       229.2       228.2       227.2    
        226.2       225.2       224.2       223.3       222.3       221.4       220.5       219.6       218.7       217.8    
        216.9       216.1       215.2       214.4       213.5       212.7       211.9       211.0       210.2       209.4    
        208.6       207.8       206.9       206.1       205.3       204.5       203.7       202.9       202.1       201.3    
        200.5       199.7       198.9       198.1       197.3       196.5       195.6       194.8       194.0       193.2    
        192.4       191.5       190.7       189.9       189.0       188.2       187.4       186.5       185.7       184.8    
   8    258.2       257.1       256.1       255.0       253.9       252.8       251.7       250.6       249.5       248.4    
        247.3       246.2       245.1       244.0       242.9       241.8       240.8       239.7       238.6       237.5    
        236.4       235.3       234.3       233.2       232.1       231.1       230.1       229.1       228.0       227.0    
        226.1       225.1       224.1       223.2       222.2       221.3       220.4       219.5       218.6       217.7    
        216.8       216.0       215.1       214.3       213.4       212.6       211.8       211.0       210.1       209.3    
        208.5       207.7       206.9       206.1       205.3       204.5       203.7       202.9       202.1       201.3    
        200.5       199.7       198.9       198.1       197.2       196.4       195.6       194.8       194.0       193.2    
        192.3       191.5       190.7       189.9       189.0       188.2       187.3       186.5       185.6       184.8    
   9    258.3       257.2       256.1       255.0       253.9       252.8       251.7       250.6       249.5       248.4    
        247.3       246.2       245.1       244.0       242.9       241.8       240.7       239.6       238.5       237.4    
        236.3       235.2       234.2       233.1       232.0       231.0       230.0       228.9       227.9       226.9    
        225.9       225.0       224.0       223.0       222.1       221.2       220.3       219.4       218.5       217.6    
        216.7       215.9       215.0       214.2       213.4       212.5       211.7       210.9       210.1       209.3    
        208.5       207.6       206.8       206.0       205.2       204.4       203.6       202.8       202.0       201.2    
        200.4       199.6       198.8       198.0       197.2       196.4       195.6       194.8       194.0       193.1    
        192.3       191.5       190.7       189.8       189.0       188.2       187.3       186.5       185.6       184.8    
  10    258.3       257.2       256.1       255.0       253.9       252.8       251.7       250.6       249.5       248.4    
        247.3       246.2       245.1       243.9       242.8       241.7       240.6       239.5       238.4       237.3    
        236.2       235.1       234.0       233.0       231.9       230.9       229.8       228.8       227.8       226.8    
        225.8       224.8       223.8       222.9       222.0       221.0       220.1       219.2       218.4       217.5    
        216.6       215.8       214.9       214.1       213.3       212.4       211.6       210.8       210.0       209.2    
        208.4       207.6       206.8       206.0       205.2       204.4       203.6       202.8       202.0       201.2    
        200.4       199.6       198.8       198.0       197.2       196.4       195.6       194.8       193.9       193.1    
        192.3       191.5       190.6       189.8       189.0       188.1       187.3       186.4       185.6       184.7    
  11    258.3       257.2       256.1       255.0       253.9       252.8       251.7       250.6       249.5       248.3    
        247.2       246.1       245.0       243.9       242.8       241.6       240.5       239.4       238.3       237.2    
        236.1       235.0       233.9       232.8       231.8       230.7       229.7       228.6       227.6       226.6    
        225.6       224.6       223.7       222.7       221.8       220.9       220.0       219.1       218.2       217.3    
        216.5       215.6       214.8       214.0       213.2       212.3       211.5       210.7       209.9       209.1    
        208.3       207.5       206.7       205.9       205.1       204.3       203.6       202.8       202.0       201.2    
        200.4       199.6       198.8       198.0       197.2       196.4       195.5       194.7       193.9       193.1    
        192.3       191.4       190.6       189.8       188.9       188.1       187.3       186.4       185.6       184.7    
  12    258.4       257.3       256.1       255.0       253.9       252.8       251.7       250.5       249.4       248.3    
        247.2       246.1       244.9       243.8       242.7       241.6       240.4       239.3       238.2       237.1    
        236.0       234.9       233.8       232.7       231.6       230.5       229.5       228.4       227.4       226.4    
        225.4       224.4       223.5       222.5       221.6       220.7       219.8       218.9       218.0       217.2    
        216.3       215.5       214.7       213.8       213.0       212.2       211.4       210.6       209.8       209.0    
        208.2       207.4       206.7       205.9       205.1       204.3       203.5       202.7       201.9       201.1    
        200.3       199.5       198.7       197.9       197.1       196.3       195.5       194.7       193.9       193.1    
        192.2       191.4       190.6       189.8       188.9       188.1       187.2       186.4       185.5       184.7    
  13    258.4       257.3       256.2       255.0       253.9       252.8       251.7       250.5       249.4       248.3    
        247.1       246.0       244.9       243.7       242.6       241.5       240.3       239.2       238.1       236.9    
        235.8       234.7       233.6       232.5       231.4       230.4       229.3       228.2       227.2       226.2    
        225.2       224.2       223.3       222.3       221.4       220.5       219.6       218.7       217.9       217.0    
        216.2       215.3       214.5       213.7       212.9       212.1       211.3       210.5       209.7       208.9    
        208.2       207.4       206.6       205.8       205.0       204.2       203.4       202.7       201.9       201.1    
        200.3       199.5       198.7       197.9       197.1       196.3       195.5       194.7       193.9       193.0    
        192.2       191.4       190.6       189.7       188.9       188.0       187.2       186.3       185.5       184.6    
  14    258.4       257.3       256.2       255.0       253.9       252.8       251.6       250.5       249.4       248.2    
        247.1       246.0       244.8       243.7       242.5       241.4       240.2       239.1       237.9       236.8    
        235.7       234.5       233.4       232.3       231.2       230.1       229.1       228.0       227.0       226.0    
        225.0       224.0       223.0       222.1       221.2       220.3       219.4       218.5       217.7       216.8    
        216.0       215.2       214.4       213.6       212.8       212.0       211.2       210.4       209.6       208.8    
        208.1       207.3       206.5       205.7       204.9       204.2       203.4       202.6       201.8       201.0    
        200.2       199.5       198.7       197.9       197.1       196.3       195.4       194.6       193.8       193.0    
        192.2       191.4       190.5       189.7       188.9       188.0       187.2       186.3       185.5       184.6    
  15    258.5       257.3       256.2       255.0       253.9       252.8       251.6       250.5       249.3       248.2    
        247.0       245.9       244.7       243.6       242.4       241.3       240.1       239.0       237.8       236.6    
        235.5       234.4       233.2       232.1       231.0       229.9       228.8       227.8       226.7       225.7    
        224.7       223.7       222.8       221.9       220.9       220.0       219.2       218.3       217.5       216.6    
        215.8       215.0       214.2       213.4       212.6       211.8       211.1       210.3       209.5       208.7    
        208.0       207.2       206.4       205.6       204.9       204.1       203.3       202.5       201.8       201.0    
        200.2       199.4       198.6       197.8       197.0       196.2       195.4       194.6       193.8       193.0    
        192.2       191.3       190.5       189.7       188.8       188.0       187.1       186.3       185.4       184.6    
  16    258.5       257.4       256.2       255.1       253.9       252.8       251.6       250.5       249.3       248.2    
        247.0       245.8       244.7       243.5       242.3       241.2       240.0       238.8       237.6       236.5    
        235.3       234.2       233.0       231.9       230.8       229.7       228.6       227.5       226.5       225.4    
        224.4       223.5       222.5       221.6       220.7       219.8       218.9       218.1       217.2       216.4    
        215.6       214.8       214.0       213.2       212.5       211.7       210.9       210.2       209.4       208.6    
        207.9       207.1       206.3       205.6       204.8       204.0       203.3       202.5       201.7       200.9    
        200.1       199.4       198.6       197.8       197.0       196.2       195.4       194.6       193.8       192.9    
        192.1       191.3       190.5       189.6       188.8       188.0       187.1       186.3       185.4       184.5    
  17    258.5       257.4       256.2       255.1       253.9       252.7       251.6       250.4       249.3       248.1    
        246.9       245.8       244.6       243.4       242.2       241.0       239.9       238.7       237.5       236.3    
        235.1       234.0       232.8       231.6       230.5       229.4       228.3       227.2       226.2       225.1    
        224.1       223.1       222.2       221.3       220.4       219.5       218.6       217.8       217.0       216.2    
        215.4       214.6       213.8       213.1       212.3       211.5       210.8       210.0       209.3       208.5    
        207.8       207.0       206.2       205.5       204.7       204.0       203.2       202.4       201.7       200.9    
        200.1       199.3       198.5       197.7       196.9       196.1       195.3       194.5       193.7       192.9    
        192.1       191.3       190.4       189.6       188.8       187.9       187.1       186.2       185.4       184.5    
  18    258.6       257.4       256.2       255.1       253.9       252.7       251.6       250.4       249.2       248.1    
        246.9       245.7       244.5       243.3       242.1       240.9       239.7       238.5       237.3       236.1    
        234.9       233.7       232.6       231.4       230.2       229.1       228.0       226.9       225.8       224.8    
        223.8       222.8       221.8       220.9       220.0       219.2       218.3       217.5       216.7       215.9    
        215.2       214.4       213.6       212.9       212.1       211.4       210.6       209.9       209.1       208.4    
        207.7       206.9       206.2       205.4       204.7       203.9       203.1       202.4       201.6       200.8    
        200.1       199.3       198.5       197.7       196.9       196.1       195.3       194.5       193.7       192.9    
        192.1       191.2       190.4       189.6       188.7       187.9       187.0       186.2       185.3       184.5    
  19    258.6       257.4       256.3       255.1       253.9       252.7       251.6       250.4       249.2       248.0    
        246.8       245.6       244.4       243.2       242.0       240.8       239.6       238.3       237.1       235.9    
        234.7       233.5       232.3       231.1       229.9       228.8       227.6       226.5       225.4       224.4    
        223.4       222.4       221.5       220.6       219.7       218.8       218.0       217.2       216.4       215.7    
        214.9       214.2       213.4       212.7       211.9       211.2       210.5       209.7       209.0       208.3    
        207.5       206.8       206.1       205.3       204.6       203.8       203.1       202.3       201.5       200.8    
        200.0       199.2       198.4       197.7       196.9       196.1       195.3       194.5       193.7       192.8    
        192.0       191.2       190.4       189.5       188.7       187.9       187.0       186.2       185.3       184.4    
  20    258.6       257.5       256.3       255.1       253.9       252.7       251.5       250.3       249.2       248.0    
        246.8       245.5       244.3       243.1       241.9       240.6       239.4       238.2       236.9       235.7    
        234.5       233.2       232.0       230.8       229.6       228.4       227.3       226.1       225.0       224.0    
        223.0       222.0       221.1       220.2       219.3       218.5       217.7       216.9       216.1       215.4    
        214.6       213.9       213.2       212.5       211.8       211.0       210.3       209.6       208.9       208.2    
        207.4       206.7       206.0       205.2       204.5       203.7       203.0       202.2       201.5       200.7    
        200.0       199.2       198.4       197.6       196.8       196.0       195.2       194.4       193.6       192.8    
        192.0       191.2       190.3       189.5       188.7       187.8       187.0       186.1       185.3       184.4    
  21    258.7       257.5       256.3       255.1       253.9       252.7       251.5       250.3       249.1       247.9    
        246.7       245.5       244.2       243.0       241.8       240.5       239.3       238.0       236.7       235.5    
        234.2       233.0       231.7       230.5       229.2       228.0       226.8       225.7       224.6       223.5    
        222.5       221.5       220.6       219.7       218.9       218.1       217.3       216.5       215.8       215.1    
        214.4       213.7       213.0       212.3       211.6       210.9       210.2       209.5       208.8       208.0    
        207.3       206.6       205.9       205.2       204.4       203.7       202.9       202.2       201.4       200.7    
        199.9       199.1       198.4       197.6       196.8       196.0       195.2       194.4       193.6       192.8    
        192.0       191.1       190.3       189.5       188.6       187.8       187.0       186.1       185.2       184.4    
  22    258.7       257.5       256.3       255.1       253.9       252.7       251.5       250.3       249.1       247.9    
        246.6       245.4       244.1       242.9       241.6       240.4       239.1       237.8       236.5       235.2    
        234.0       232.7       231.4       230.1       228.8       227.6       226.4       225.2       224.1       223.0    
        222.0       221.0       220.1       219.2       218.4       217.6       216.9       216.2       215.5       214.8    
        214.1       213.4       212.7       212.0       211.4       210.7       210.0       209.3       208.6       207.9    
        207.2       206.5       205.8       205.1       204.3       203.6       202.9       202.1       201.4       200.6    
        199.9       199.1       198.3       197.5       196.7       196.0       195.2       194.4       193.6       192.7    
        191.9       191.1       190.3       189.5       188.6       187.8       186.9       186.1       185.2       184.3    
  23    258.7       257.5       256.3       255.1       253.9       252.7       251.5       250.3       249.0       247.8    
        246.6       245.3       244.1       242.8       241.5       240.2       238.9       237.6       236.3       235.0    
        233.7       232.4       231.0       229.7       228.4       227.2       225.9       224.7       223.5       222.4    
        221.4       220.4       219.5       218.7       217.9       217.2       216.5       215.8       215.1       214.4    
        213.8       213.1       212.5       211.8       211.2       210.5       209.8       209.2       208.5       207.8    
        207.1       206.4       205.7       205.0       204.3       203.5       202.8       202.1       201.3       200.6    
        199.8       199.0       198.3       197.5       196.7       195.9       195.1       194.3       193.5       192.7    
        191.9       191.1       190.3       189.4       188.6       187.7       186.9       186.0       185.2       184.3    
  24    258.8       257.6       256.3       255.1       253.9       252.7       251.5       250.2       249.0       247.8    
        246.5       245.2       244.0       242.7       241.4       240.1       238.8       237.4       236.1       234.8    
        233.4       232.1       230.7       229.3       228.0       226.7       225.4       224.1       222.9       221.7    
        220.7       219.7       218.9       218.1       217.3       216.6       216.0       215.4       214.7       214.1    
        213.5       212.9       212.3       211.6       211.0       210.3       209.7       209.0       208.4       207.7    
        207.0       206.3       205.6       204.9       204.2       203.5       202.7       202.0       201.3       200.5    
        199.8       199.0       198.2       197.5       196.7       195.9       195.1       194.3       193.5       192.7    
        191.9       191.0       190.2       189.4       188.6       187.7       186.9       186.0       185.1       184.3    
  25    258.8       257.6       256.4       255.1       253.9       252.7       251.4       250.2       249.0       247.7    
        246.4       245.2       243.9       242.6       241.3       239.9       238.6       237.2       235.9       234.5    
        233.1       231.7       230.3       228.9       227.5       226.1       224.8       223.4       222.2       221.0    
        219.9       218.9       218.1       217.4       216.7       216.1       215.5       214.9       214.4       213.8    
        213.2       212.6       212.0       211.4       210.8       210.2       209.5       208.9       208.2       207.6    
        206.9       206.2       205.5       204.8       204.1       203.4       202.7       202.0       201.2       200.5    
        199.7       199.0       198.2       197.4       196.6       195.9       195.1       194.3       193.5       192.7    
        191.8       191.0       190.2       189.4       188.5       187.7       186.8       186.0       185.1       184.3    
  26    258.8       257.6       256.4       255.1       253.9       252.7       251.4       250.2       248.9       247.7    
        246.4       245.1       243.8       242.5       241.2       239.8       238.4       237.1       235.7       234.3    
        232.8       231.4       230.0       228.5       227.0       225.6       224.1       222.7       221.3       220.1    
        219.0       218.1       217.3       216.6       216.1       215.5       215.0       214.5       214.0       213.4    
        212.9       212.3       211.8       211.2       210.6       210.0       209.4       208.8       208.1       207.5    
        206.8       206.1       205.5       204.8       204.1       203.4       202.6       201.9       201.2       200.4    
        199.7       198.9       198.2       197.4       196.6       195.8       195.0       194.2       193.4       192.6    
        191.8       191.0       190.2       189.3       188.5       187.7       186.8       185.9       185.1       184.2    
  27    258.9       257.6       256.4       255.2       253.9       252.7       251.4       250.2       248.9       247.6    
        246.3       245.0       243.7       242.4       241.0       239.7       238.3       236.9       235.5       234.0    
        232.6       231.1       229.6       228.1       226.6       225.0       223.4       221.9       220.4       219.0    
        217.9       217.0       216.3       215.8       215.4       214.9       214.5       214.1       213.6       213.1    
        212.6       212.1       211.6       211.0       210.4       209.9       209.3       208.6       208.0       207.4    
        206.7       206.1       205.4       204.7       204.0       203.3       202.6       201.9       201.1       200.4    
        199.6       198.9       198.1       197.4       196.6       195.8       195.0       194.2       193.4       192.6    
        191.8       191.0       190.1       189.3       188.5       187.6       186.8       185.9       185.1       184.2    
  28    258.9       257.7       256.4       255.2       253.9       252.7       251.4       250.2       248.9       247.6    
        246.3       245.0       243.7       242.3       240.9       239.6       238.1       236.7       235.3       233.8    
        232.3       230.8       229.2       227.7       226.1       224.4       222.7       221.0       219.3       217.7    
        216.5       215.7       215.2       214.9       214.6       214.3       214.0       213.6       213.2       212.8    
        212.4       211.9       211.4       210.8       210.3       209.7       209.1       208.5       207.9       207.3    
        206.6       206.0       205.3       204.6       203.9       203.2       202.5       201.8       201.1       200.4    
        199.6       198.9       198.1       197.3       196.6       195.8       195.0       194.2       193.4       192.6    
        191.8       190.9       190.1       189.3       188.4       187.6       186.7       185.9       185.0       184.2    
  29    258.9       257.7       256.4       255.2       253.9       252.7       251.4       250.2       248.9       247.6    
        246.3       245.0       243.6       242.2       240.9       239.4       238.0       236.5       235.1       233.5    
        232.0       230.5       228.9       227.3       225.6       223.9       222.0       220.1       218.1       216.1    
        214.5       214.1       214.0       214.0       213.9       213.8       213.5       213.3       212.9       212.5    
        212.1       211.7       211.2       210.7       210.1       209.6       209.0       208.4       207.8       207.2    
        206.6       205.9       205.3       204.6       203.9       203.2       202.5       201.8       201.1       200.3    
        199.6       198.8       198.1       197.3       196.5       195.7       195.0       194.2       193.4       192.5    
        191.7       190.9       190.1       189.3       188.4       187.6       186.7       185.9       185.0       184.1    
  30    259.0       257.7       256.5       255.2       254.0       252.7       251.4       250.1       248.9       247.6    
        246.3       244.9       243.6       242.2       240.8       239.4       237.9       236.4       234.9       233.3    
        231.7       230.2       228.6       226.9       225.2       223.4       221.4       219.3       216.9       214.1    
        211.4       212.0       212.7       213.1       213.3       213.3       213.1       212.9       212.6       212.3    
        211.9       211.5       211.0       210.5       210.0       209.5       208.9       208.3       207.8       207.1    
        206.5       205.9       205.2       204.5       203.9       203.2       202.5       201.8       201.0       200.3    
        199.6       198.8       198.0       197.3       196.5       195.7       194.9       194.1       193.3       192.5    
        191.7       190.9       190.1       189.2       188.4       187.5       186.7       185.8       185.0       184.1    
  31    259.0       257.7       256.5       255.2       254.0       252.7       251.4       250.2       248.9       247.6    
        246.2       244.9       243.5       242.1       240.7       239.3       237.8       236.3       234.7       233.1    
        231.4       229.9       228.3       226.7       224.9       223.0       221.0       218.7       215.9       212.0    
        204.6       209.9       211.8       212.5       212.8       212.9       212.8       212.6       212.4       212.1    
        211.7       211.3       210.9       210.4       209.9       209.4       208.8       208.3       207.7       207.1    
        206.5       205.8       205.2       204.5       203.8       203.1       202.4       201.7       201.0       200.3    
        199.5       198.8       198.0       197.3       196.5       195.7       194.9       194.1       193.3       192.5    
        191.7       190.9       190.0       189.2       188.4       187.5       186.7       185.8       184.9       184.1    
  32    259.0       257.8       256.5       255.3       254.0       252.7       251.4       250.2       248.9       247.6    
        246.2       244.9       243.5       242.1       240.7       239.3       237.8       236.2       234.6       232.9    
        230.9       229.7       228.1       226.5       224.7       222.8       220.8       218.5       216.0       213.2    
        210.5       211.1       211.9       212.4       212.6       212.7       212.6       212.4       212.2       211.9    
        211.6       211.2       210.8       210.3       209.8       209.3       208.8       208.2       207.6       207.0    
        206.4       205.8       205.1       204.5       203.8       203.1       202.4       201.7       201.0       200.3    
        199.5       198.8       198.0       197.2       196.5       195.7       194.9       194.1       193.3       192.5    
        191.7       190.8       190.0       189.2       188.3       187.5       186.6       185.8       184.9       184.0    
  33    259.1       257.8       256.5       255.3       254.0       252.7       251.5       250.2       248.9       247.6    
        246.2       244.9       243.5       242.1       240.7       239.2       237.7       236.2       234.6       232.9    
        231.2       229.7       228.1       226.4       224.6       222.7       220.7       218.6       216.5       214.4    
        212.7       212.3       212.3       212.5       212.5       212.5       212.5       212.3       212.1       211.8    
        211.5       211.1       210.7       210.3       209.8       209.3       208.8       208.2       207.6       207.0    
        206.4       205.8       205.1       204.5       203.8       203.1       202.4       201.7       201.0       200.2    
        199.5       198.8       198.0       197.2       196.5       195.7       194.9       194.1       193.3       192.5    
        191.6       190.8       190.0       189.2       188.3       187.5       186.6       185.7       184.9       184.0    
  34    259.1       257.8       256.6       255.3       254.0       252.8       251.5       250.2       248.9       247.6    
        246.3       244.9       243.5       242.1       240.7       239.3       237.8       236.2       234.6       233.0    
        231.4       229.8       228.1       226.4       224.6       222.7       220.7       218.8       216.8       215.0    
        213.7       213.0       212.7       212.6       212.6       212.5       212.4       212.3       212.0       211.8    
        211.5       211.1       210.7       210.2       209.8       209.3       208.7       208.2       207.6       207.0    
        206.4       205.8       205.1       204.5       203.8       203.1       202.4       201.7       201.0       200.2    
        199.5       198.7       198.0       197.2       196.4       195.7       194.9       194.1       193.3       192.5    
        191.6       190.8       190.0       189.1       188.3       187.4       186.6       185.7       184.8       184.0    
  35    259.1       257.9       256.6       255.3       254.1       252.8       251.5       250.2       248.9       247.6    
        246.3       244.9       243.6       242.2       240.8       239.3       237.8       236.3       234.7       233.1    
        231.5       229.8       228.2       226.4       224.6       222.7       220.8       218.8       217.0       215.3    
        214.0       213.2       212.8       212.7       212.6       212.5       212.4       212.3       212.0       211.8    
        211.5       211.1       210.7       210.3       209.8       209.3       208.7       208.2       207.6       207.0    
        206.4       205.8       205.1       204.5       203.8       203.1       202.4       201.7       201.0       200.2    
        199.5       198.7       198.0       197.2       196.4       195.7       194.9       194.1       193.3       192.4    
        191.6       190.8       190.0       189.1       188.3       187.4       186.6       185.7       184.8       183.9    
  36    259.2       257.9       256.6       255.4       254.1       252.8       251.6       250.3       249.0       247.7    
        246.3       245.0       243.6       242.2       240.8       239.4       237.9       236.4       234.8       233.2    
        231.6       230.0       228.3       226.5       224.7       222.8       220.8       218.8       216.9       215.1    
        213.7       213.0       212.7       212.6       212.6       212.6       212.5       212.3       212.1       211.8    
        211.5       211.1       210.7       210.3       209.8       209.3       208.8       208.2       207.6       207.0    
        206.4       205.8       205.2       204.5       203.8       203.1       202.4       201.7       201.0       200.2    
        199.5       198.7       198.0       197.2       196.4       195.6       194.9       194.1       193.2       192.4    
        191.6       190.8       189.9       189.1       188.2       187.4       186.5       185.7       184.8       183.9    
  37    259.2       257.9       256.7       255.4       254.2       252.9       251.6       250.3       249.0       247.7    
        246.4       245.1       243.7       242.3       240.9       239.4       238.0       236.5       234.9       233.4    
        231.8       230.1       228.4       226.7       224.8       222.9       220.9       218.8       216.6       214.5    
        212.8       212.4       212.5       212.6       212.7       212.7       212.6       212.4       212.2       211.9    
        211.6       211.2       210.8       210.4       209.9       209.4       208.8       208.3       207.7       207.1    
        206.5       205.8       205.2       204.5       203.8       203.1       202.4       201.7       201.0       200.3    
        199.5       198.8       198.0       197.2       196.4       195.6       194.9       194.0       193.2       192.4    
        191.6       190.8       189.9       189.1       188.2       187.4       186.5       185.6       184.8       183.9    
  38    259.2       258.0       256.7       255.5       254.2       252.9       251.7       250.4       249.1       247.8    
        246.5       245.1       243.8       242.4       241.0       239.5       238.1       236.6       235.1       233.5    
        231.9       230.3       228.6       226.9       225.0       223.1       221.0       218.8       216.3       213.5    
        210.7       211.4       212.1       212.6       212.8       212.8       212.8       212.6       212.4       212.1    
        211.7       211.3       210.9       210.5       210.0       209.4       208.9       208.3       207.7       207.1    
        206.5       205.9       205.2       204.5       203.9       203.2       202.5       201.7       201.0       200.3    
        199.5       198.8       198.0       197.2       196.4       195.7       194.9       194.0       193.2       192.4    
        191.6       190.7       189.9       189.1       188.2       187.3       186.5       185.6       184.7       183.8    
  39    259.3       258.0       256.8       255.5       254.2       253.0       251.7       250.4       249.1       247.9    
        246.5       245.2       243.9       242.5       241.1       239.7       238.2       236.8       235.3       233.7    
        232.1       230.5       228.9       227.1       225.3       223.4       221.3       219.0       216.2       212.3    
        204.9       210.2       212.0       212.8       213.1       213.1       213.0       212.9       212.6       212.3    
        211.9       211.5       211.1       210.6       210.1       209.5       209.0       208.4       207.8       207.2    
        206.6       205.9       205.3       204.6       203.9       203.2       202.5       201.8       201.0       200.3    
        199.5       198.8       198.0       197.2       196.5       195.7       194.9       194.0       193.2       192.4    
        191.6       190.7       189.9       189.0       188.2       187.3       186.5       185.6       184.7       183.8    
  40    259.3       258.1       256.8       255.6       254.3       253.0       251.8       250.5       249.2       247.9    
        246.6       245.3       244.0       242.6       241.2       239.8       238.4       236.9       235.4       233.9    
        232.4       230.8       229.2       227.5       225.7       223.8       221.9       219.7       217.2       214.5    
        211.7       212.4       213.1       213.5       213.6       213.6       213.4       213.2       212.9       212.5    
        212.1       211.7       211.2       210.7       210.2       209.7       209.1       208.5       207.9       207.3    
        206.7       206.0       205.3       204.7       204.0       203.3       202.5       201.8       201.1       200.3    
        199.6       198.8       198.0       197.3       196.5       195.7       194.9       194.0       193.2       192.4    
        191.6       190.7       189.9       189.0       188.2       187.3       186.4       185.6       184.7       183.8    
  41    259.3       258.1       256.8       255.6       254.3       253.1       251.8       250.6       249.3       248.0    
        246.7       245.4       244.1       242.7       241.4       240.0       238.6       237.1       235.7       234.2    
        232.7       231.1       229.5       227.9       226.2       224.4       222.5       220.6       218.6       216.6    
        214.9       214.5       214.4       214.4       214.3       214.1       213.9       213.6       213.2       212.8    
        212.4       211.9       211.4       210.9       210.4       209.8       209.2       208.6       208.0       207.4    
        206.7       206.1       205.4       204.7       204.0       203.3       202.6       201.9       201.1       200.4    
        199.6       198.8       198.1       197.3       196.5       195.7       194.9       194.1       193.2       192.4    
        191.6       190.7       189.9       189.0       188.2       187.3       186.4       185.5       184.6       183.8    
  42    259.4       258.1       256.9       255.6       254.4       253.2       251.9       250.6       249.4       248.1    
        246.8       245.5       244.2       242.9       241.5       240.1       238.7       237.3       235.9       234.4    
        232.9       231.4       229.9       228.3       226.7       225.0       223.3       221.6       219.8       218.2    
        216.9       216.2       215.7       215.4       215.1       214.7       214.4       214.0       213.6       213.2    
        212.7       212.2       211.7       211.1       210.6       210.0       209.4       208.8       208.1       207.5    
        206.8       206.2       205.5       204.8       204.1       203.4       202.6       201.9       201.2       200.4    
        199.6       198.9       198.1       197.3       196.5       195.7       194.9       194.1       193.2       192.4    
        191.6       190.7       189.9       189.0       188.1       187.3       186.4       185.5       184.6       183.7    
  43    259.4       258.2       256.9       255.7       254.5       253.2       252.0       250.7       249.5       248.2    
        246.9       245.6       244.3       243.0       241.7       240.3       238.9       237.5       236.1       234.7    
        233.3       231.8       230.3       228.7       227.2       225.6       224.0       222.5       221.0       219.6    
        218.4       217.5       216.8       216.3       215.8       215.4       214.9       214.5       214.0       213.5    
        213.0       212.5       211.9       211.3       210.8       210.2       209.5       208.9       208.3       207.6    
        206.9       206.3       205.6       204.9       204.2       203.4       202.7       202.0       201.2       200.4    
        199.7       198.9       198.1       197.3       196.5       195.7       194.9       194.1       193.2       192.4    
        191.6       190.7       189.9       189.0       188.1       187.3       186.4       185.5       184.6       183.7    
  44    259.4       258.2       257.0       255.8       254.5       253.3       252.0       250.8       249.6       248.3    
        247.0       245.8       244.5       243.2       241.8       240.5       239.1       237.8       236.4       235.0    
        233.6       232.1       230.7       229.2       227.7       226.3       224.8       223.3       222.0       220.7    
        219.6       218.6       217.8       217.2       216.6       216.0       215.5       215.0       214.4       213.9    
        213.3       212.8       212.2       211.6       211.0       210.3       209.7       209.1       208.4       207.7    
        207.1       206.4       205.7       205.0       204.2       203.5       202.8       202.0       201.3       200.5    
        199.7       198.9       198.1       197.3       196.5       195.7       194.9       194.1       193.2       192.4    
        191.6       190.7       189.8       189.0       188.1       187.2       186.3       185.5       184.6       183.7    
  45    259.5       258.3       257.0       255.8       254.6       253.4       252.1       250.9       249.7       248.4    
        247.2       245.9       244.6       243.3       242.0       240.7       239.4       238.0       236.7       235.3    
        233.9       232.5       231.1       229.7       228.3       226.9       225.5       224.1       222.8       221.6    
        220.5       219.6       218.7       218.0       217.3       216.7       216.1       215.5       214.9       214.3    
        213.7       213.1       212.5       211.8       211.2       210.6       209.9       209.2       208.6       207.9    
        207.2       206.5       205.8       205.1       204.3       203.6       202.8       202.1       201.3       200.5    
        199.8       199.0       198.2       197.4       196.6       195.7       194.9       194.1       193.3       192.4    
        191.6       190.7       189.8       189.0       188.1       187.2       186.3       185.4       184.5       183.6    
  46    259.5       258.3       257.1       255.9       254.6       253.4       252.2       251.0       249.8       248.5    
        247.3       246.0       244.8       243.5       242.2       240.9       239.6       238.3       236.9       235.6    
        234.2       232.9       231.5       230.2       228.8       227.4       226.1       224.8       223.6       222.4    
        221.4       220.4       219.5       218.7       218.0       217.3       216.6       215.9       215.3       214.7    
        214.0       213.4       212.7       212.1       211.4       210.8       210.1       209.4       208.7       208.0    
        207.3       206.6       205.9       205.2       204.4       203.7       202.9       202.1       201.4       200.6    
        199.8       199.0       198.2       197.4       196.6       195.8       194.9       194.1       193.3       192.4    
        191.6       190.7       189.8       189.0       188.1       187.2       186.3       185.4       184.5       183.6    
  47    259.5       258.3       257.1       255.9       254.7       253.5       252.3       251.1       249.9       248.6    
        247.4       246.2       244.9       243.6       242.4       241.1       239.8       238.5       237.2       235.9    
        234.6       233.2       231.9       230.6       229.3       228.0       226.7       225.5       224.3       223.2    
        222.1       221.1       220.2       219.4       218.6       217.8       217.1       216.4       215.7       215.0    
        214.4       213.7       213.0       212.3       211.7       211.0       210.3       209.6       208.9       208.2    
        207.5       206.7       206.0       205.3       204.5       203.8       203.0       202.2       201.4       200.7    
        199.9       199.1       198.3       197.4       196.6       195.8       195.0       194.1       193.3       192.4    
        191.6       190.7       189.8       189.0       188.1       187.2       186.3       185.4       184.5       183.6    
  48    259.6       258.4       257.2       256.0       254.8       253.6       252.4       251.2       250.0       248.7    
        247.5       246.3       245.1       243.8       242.6       241.3       240.0       238.7       237.5       236.2    
        234.9       233.6       232.3       231.0       229.8       228.5       227.3       226.1       224.9       223.8    
        222.8       221.8       220.9       220.0       219.1       218.3       217.6       216.8       216.1       215.4    
        214.7       214.0       213.3       212.6       211.9       211.2       210.5       209.8       209.1       208.3    
        207.6       206.9       206.1       205.4       204.6       203.8       203.1       202.3       201.5       200.7    
        199.9       199.1       198.3       197.5       196.7       195.8       195.0       194.1       193.3       192.4    
        191.6       190.7       189.8       188.9       188.1       187.2       186.3       185.4       184.5       183.5    
  49    259.6       258.4       257.2       256.0       254.8       253.6       252.5       251.3       250.1       248.9    
        247.6       246.4       245.2       244.0       242.7       241.5       240.2       239.0       237.7       236.5    
        235.2       233.9       232.7       231.4       230.2       229.0       227.8       226.6       225.5       224.4    
        223.4       222.4       221.4       220.5       219.7       218.8       218.0       217.3       216.5       215.8    
        215.0       214.3       213.6       212.9       212.1       211.4       210.7       210.0       209.2       208.5    
        207.7       207.0       206.2       205.5       204.7       203.9       203.2       202.4       201.6       200.8    
        200.0       199.2       198.3       197.5       196.7       195.9       195.0       194.2       193.3       192.4    
        191.6       190.7       189.8       188.9       188.1       187.2       186.3       185.3       184.4       183.5    
  50    259.6       258.5       257.3       256.1       254.9       253.7       252.5       251.4       250.2       249.0    
        247.8       246.6       245.4       244.1       242.9       241.7       240.5       239.2       238.0       236.7    
        235.5       234.3       233.0       231.8       230.6       229.4       228.3       227.1       226.0       224.9    
        223.9       222.9       221.9       221.0       220.2       219.3       218.5       217.7       216.9       216.1    
        215.4       214.6       213.9       213.1       212.4       211.6       210.9       210.1       209.4       208.6    
        207.9       207.1       206.4       205.6       204.8       204.0       203.2       202.4       201.6       200.8    
        200.0       199.2       198.4       197.6       196.7       195.9       195.0       194.2       193.3       192.5    
        191.6       190.7       189.8       188.9       188.0       187.1       186.2       185.3       184.4       183.5    
  51    259.7       258.5       257.3       256.2       255.0       253.8       252.6       251.4       250.3       249.1    
        247.9       246.7       245.5       244.3       243.1       241.9       240.7       239.5       238.2       237.0    
        235.8       234.6       233.4       232.2       231.0       229.8       228.7       227.6       226.5       225.4    
        224.4       223.4       222.4       221.5       220.6       219.7       218.9       218.1       217.3       216.5    
        215.7       214.9       214.1       213.4       212.6       211.8       211.1       210.3       209.6       208.8    
        208.0       207.3       206.5       205.7       204.9       204.1       203.3       202.5       201.7       200.9    
        200.1       199.3       198.4       197.6       196.8       195.9       195.1       194.2       193.3       192.5    
        191.6       190.7       189.8       188.9       188.0       187.1       186.2       185.3       184.4       183.4    
  52    259.7       258.5       257.4       256.2       255.0       253.9       252.7       251.5       250.4       249.2    
        248.0       246.8       245.7       244.5       243.3       242.1       240.9       239.7       238.5       237.3    
        236.1       234.9       233.7       232.5       231.4       230.2       229.1       228.0       226.9       225.9    
        224.8       223.8       222.9       221.9       221.0       220.1       219.3       218.4       217.6       216.8    
        216.0       215.2       214.4       213.6       212.8       212.1       211.3       210.5       209.7       209.0    
        208.2       207.4       206.6       205.8       205.0       204.2       203.4       202.6       201.8       201.0    
        200.2       199.3       198.5       197.6       196.8       195.9       195.1       194.2       193.4       192.5    
        191.6       190.7       189.8       188.9       188.0       187.1       186.2       185.3       184.3       183.4    
  53    259.7       258.6       257.4       256.3       255.1       254.0       252.8       251.6       250.5       249.3    
        248.1       247.0       245.8       244.6       243.5       242.3       241.1       239.9       238.7       237.5    
        236.4       235.2       234.0       232.9       231.7       230.6       229.5       228.4       227.3       226.3    
        225.2       224.2       223.3       222.3       221.4       220.5       219.6       218.8       217.9       217.1    
        216.3       215.5       214.7       213.9       213.1       212.3       211.5       210.7       209.9       209.1    
        208.3       207.5       206.7       205.9       205.1       204.3       203.5       202.7       201.9       201.0    
        200.2       199.4       198.5       197.7       196.8       196.0       195.1       194.2       193.4       192.5    
        191.6       190.7       189.8       188.9       188.0       187.1       186.2       185.3       184.3       183.4    
  54    259.8       258.6       257.5       256.3       255.2       254.0       252.9       251.7       250.6       249.4    
        248.3       247.1       246.0       244.8       243.6       242.5       241.3       240.1       238.9       237.8    
        236.6       235.5       234.3       233.2       232.1       230.9       229.8       228.8       227.7       226.6    
        225.6       224.6       223.7       222.7       221.8       220.9       220.0       219.1       218.2       217.4    
        216.6       215.7       214.9       214.1       213.3       212.5       211.7       210.9       210.1       209.3    
        208.5       207.7       206.9       206.0       205.2       204.4       203.6       202.8       201.9       201.1    
        200.3       199.4       198.6       197.7       196.9       196.0       195.1       194.3       193.4       192.5    
        191.6       190.7       189.8       188.9       188.0       187.1       186.2       185.2       184.3       183.3    
  55    259.8       258.7       257.5       256.4       255.2       254.1       253.0       251.8       250.7       249.5    
        248.4       247.2       246.1       244.9       243.8       242.6       241.5       240.3       239.2       238.0    
        236.9       235.7       234.6       233.5       232.4       231.3       230.2       229.1       228.0       227.0    
        226.0       225.0       224.0       223.0       222.1       221.2       220.3       219.4       218.5       217.7    
        216.8       216.0       215.1       214.3       213.5       212.7       211.9       211.0       210.2       209.4    
        208.6       207.8       207.0       206.2       205.3       204.5       203.7       202.9       202.0       201.2    
        200.3       199.5       198.6       197.8       196.9       196.0       195.2       194.3       193.4       192.5    
        191.6       190.7       189.8       188.9       188.0       187.1       186.1       185.2       184.3       183.3    
  56    259.8       258.7       257.6       256.4       255.3       254.2       253.0       251.9       250.8       249.6    
        248.5       247.4       246.2       245.1       243.9       242.8       241.7       240.5       239.4       238.2    
        237.1       236.0       234.9       233.7       232.6       231.5       230.5       229.4       228.4       227.3    
        226.3       225.3       224.3       223.4       222.4       221.5       220.6       219.7       218.8       217.9    
        217.1       216.2       215.4       214.5       213.7       212.9       212.0       211.2       210.4       209.6    
        208.7       207.9       207.1       206.3       205.4       204.6       203.8       202.9       202.1       201.2    
        200.4       199.5       198.7       197.8       197.0       196.1       195.2       194.3       193.4       192.5    
        191.6       190.7       189.8       188.9       188.0       187.1       186.1       185.2       184.2       183.3    
  57    259.9       258.7       257.6       256.5       255.4       254.2       253.1       252.0       250.9       249.7    
        248.6       247.5       246.4       245.2       244.1       243.0       241.8       240.7       239.6       238.4    
        237.3       236.2       235.1       234.0       232.9       231.8       230.8       229.7       228.7       227.6    
        226.6       225.6       224.6       223.7       222.7       221.8       220.9       220.0       219.1       218.2    
        217.3       216.4       215.6       214.7       213.9       213.1       212.2       211.4       210.5       209.7    
        208.9       208.1       207.2       206.4       205.5       204.7       203.9       203.0       202.2       201.3    
        200.5       199.6       198.7       197.9       197.0       196.1       195.2       194.3       193.4       192.6    
        191.6       190.7       189.8       188.9       188.0       187.0       186.1       185.2       184.2       183.3    
  58    259.9       258.8       257.7       256.5       255.4       254.3       253.2       252.1       251.0       249.8    
        248.7       247.6       246.5       245.4       244.2       243.1       242.0       240.9       239.8       238.6    
        237.5       236.4       235.3       234.2       233.2       232.1       231.0       230.0       228.9       227.9    
        226.9       225.9       224.9       223.9       223.0       222.1       221.1       220.2       219.3       218.4    
        217.5       216.7       215.8       214.9       214.1       213.2       212.4       211.5       210.7       209.9    
        209.0       208.2       207.3       206.5       205.6       204.8       203.9       203.1       202.2       201.4    
        200.5       199.7       198.8       197.9       197.0       196.1       195.3       194.4       193.5       192.6    
        191.7       190.7       189.8       188.9       188.0       187.0       186.1       185.1       184.2       183.2    
  59    259.9       258.8       257.7       256.6       255.5       254.4       253.3       252.2       251.0       249.9    
        248.8       247.7       246.6       245.5       244.4       243.3       242.2       241.0       239.9       238.8    
        237.7       236.6       235.6       234.5       233.4       232.3       231.3       230.2       229.2       228.2    
        227.2       226.2       225.2       224.2       223.3       222.3       221.4       220.5       219.5       218.6    
        217.8       216.9       216.0       215.1       214.3       213.4       212.5       211.7       210.8       210.0    
        209.1       208.3       207.4       206.6       205.7       204.9       204.0       203.2       202.3       201.4    
        200.6       199.7       198.8       198.0       197.1       196.2       195.3       194.4       193.5       192.6    
        191.7       190.7       189.8       188.9       188.0       187.0       186.1       185.1       184.2       183.2    
  60    260.0       258.9       257.8       256.7       255.5       254.4       253.3       252.2       251.1       250.0    
        248.9       247.8       246.7       245.6       244.5       243.4       242.3       241.2       240.1       239.0    
        237.9       236.8       235.8       234.7       233.6       232.6       231.5       230.5       229.4       228.4    
        227.4       226.4       225.4       224.5       223.5       222.5       221.6       220.7       219.8       218.9    
        218.0       217.1       216.2       215.3       214.4       213.6       212.7       211.8       211.0       210.1    
        209.3       208.4       207.6       206.7       205.8       205.0       204.1       203.2       202.4       201.5    
        200.6       199.8       198.9       198.0       197.1       196.2       195.3       194.4       193.5       192.6    
        191.7       190.8       189.8       188.9       187.9       187.0       186.1       185.1       184.1       183.2    
  61    260.0       258.9       257.8       256.7       255.6       254.5       253.4       252.3       251.2       250.1    
        249.0       247.9       246.8       245.7       244.6       243.6       242.5       241.4       240.3       239.2    
        238.1       237.0       235.9       234.9       233.8       232.8       231.7       230.7       229.7       228.6    
        227.6       226.6       225.7       224.7       223.7       222.8       221.8       220.9       220.0       219.1    
        218.2       217.3       216.4       215.5       214.6       213.7       212.8       212.0       211.1       210.2    
        209.4       208.5       207.7       206.8       205.9       205.1       204.2       203.3       202.4       201.6    
        200.7       199.8       198.9       198.0       197.1       196.2       195.3       194.4       193.5       192.6    
        191.7       190.8       189.8       188.9       187.9       187.0       186.0       185.1       184.1       183.1    
  62    260.0       258.9       257.9       256.8       255.7       254.6       253.5       252.4       251.3       250.2    
        249.1       248.0       246.9       245.9       244.8       243.7       242.6       241.5       240.4       239.3    
        238.3       237.2       236.1       235.1       234.0       233.0       231.9       230.9       229.9       228.9    
        227.8       226.9       225.9       224.9       223.9       223.0       222.0       221.1       220.2       219.2    
        218.3       217.4       216.5       215.6       214.8       213.9       213.0       212.1       211.2       210.4    
        209.5       208.6       207.8       206.9       206.0       205.1       204.3       203.4       202.5       201.6    
        200.7       199.9       199.0       198.1       197.2       196.3       195.4       194.5       193.5       192.6    
        191.7       190.8       189.8       188.9       187.9       187.0       186.0       185.1       184.1       183.1    
  63    260.1       259.0       257.9       256.8       255.7       254.6       253.5       252.5       251.4       250.3    
        249.2       248.1       247.0       246.0       244.9       243.8       242.7       241.6       240.6       239.5    
        238.4       237.4       236.3       235.2       234.2       233.1       232.1       231.1       230.1       229.0    
        228.0       227.0       226.1       225.1       224.1       223.2       222.2       221.3       220.3       219.4    
        218.5       217.6       216.7       215.8       214.9       214.0       213.1       212.2       211.4       210.5    
        209.6       208.7       207.9       207.0       206.1       205.2       204.3       203.5       202.6       201.7    
        200.8       199.9       199.0       198.1       197.2       196.3       195.4       194.5       193.6       192.6    
        191.7       190.8       189.8       188.9       187.9       187.0       186.0       185.0       184.1       183.1    
  64    260.1       259.0       257.9       256.9       255.8       254.7       253.6       252.5       251.4       250.4    
        249.3       248.2       247.1       246.1       245.0       243.9       242.8       241.8       240.7       239.6    
        238.6       237.5       236.5       235.4       234.4       233.3       232.3       231.3       230.2       229.2    
        228.2       227.2       226.2       225.3       224.3       223.3       222.4       221.5       220.5       219.6    
        218.7       217.8       216.8       215.9       215.0       214.1       213.2       212.4       211.5       210.6    
        209.7       208.8       207.9       207.1       206.2       205.3       204.4       203.5       202.6       201.7    
        200.8       199.9       199.0       198.1       197.2       196.3       195.4       194.5       193.6       192.6    
        191.7       190.8       189.8       188.9       187.9       186.9       186.0       185.0       184.0       183.0    
  65    260.1       259.1       258.0       256.9       255.8       254.7       253.7       252.6       251.5       250.4    
        249.4       248.3       247.2       246.2       245.1       244.0       243.0       241.9       240.8       239.8    
        238.7       237.6       236.6       235.5       234.5       233.5       232.4       231.4       230.4       229.4    
        228.4       227.4       226.4       225.4       224.5       223.5       222.6       221.6       220.7       219.7    
        218.8       217.9       217.0       216.1       215.2       214.3       213.4       212.5       211.6       210.7    
        209.8       208.9       208.0       207.1       206.3       205.4       204.5       203.6       202.7       201.8    
        200.9       200.0       199.1       198.2       197.3       196.4       195.4       194.5       193.6       192.6    
        191.7       190.8       189.8       188.9       187.9       186.9       186.0       185.0       184.0       183.0    
  66    260.2       259.1       258.0       256.9       255.9       254.8       253.7       252.7       251.6       250.5    
        249.5       248.4       247.3       246.3       245.2       244.1       243.1       242.0       240.9       239.9    
        238.8       237.8       236.7       235.7       234.7       233.6       232.6       231.6       230.6       229.6    
        228.6       227.6       226.6       225.6       224.6       223.7       222.7       221.8       220.8       219.9    
        219.0       218.0       217.1       216.2       215.3       214.4       213.5       212.6       211.7       210.8    
        209.9       209.0       208.1       207.2       206.3       205.4       204.5       203.6       202.7       201.8    
        200.9       200.0       199.1       198.2       197.3       196.4       195.5       194.5       193.6       192.7    
        191.7       190.8       189.8       188.9       187.9       186.9       185.9       185.0       184.0       183.0    
  67    260.2       259.1       258.1       257.0       255.9       254.8       253.8       252.7       251.6       250.6    
        249.5       248.5       247.4       246.3       245.3       244.2       243.2       242.1       241.0       240.0    
        238.9       237.9       236.9       235.8       234.8       233.8       232.7       231.7       230.7       229.7    
        228.7       227.7       226.7       225.7       224.8       223.8       222.9       221.9       221.0       220.0    
        219.1       218.2       217.2       216.3       215.4       214.5       213.6       212.7       211.8       210.9    
        210.0       209.1       208.2       207.3       206.4       205.5       204.6       203.7       202.8       201.9    
        201.0       200.1       199.2       198.2       197.3       196.4       195.5       194.5       193.6       192.7    
        191.7       190.8       189.8       188.8       187.9       186.9       185.9       184.9       183.9       182.9    
  68    260.2       259.2       258.1       257.0       256.0       254.9       253.8       252.8       251.7       250.6    
        249.6       248.5       247.5       246.4       245.4       244.3       243.3       242.2       241.1       240.1    
        239.1       238.0       237.0       235.9       234.9       233.9       232.9       231.8       230.8       229.8    
        228.8       227.8       226.9       225.9       224.9       223.9       223.0       222.0       221.1       220.1    
        219.2       218.3       217.4       216.4       215.5       214.6       213.7       212.8       211.9       211.0    
        210.1       209.2       208.3       207.4       206.5       205.6       204.6       203.7       202.8       201.9    
        201.0       200.1       199.2       198.3       197.3       196.4       195.5       194.6       193.6       192.7    
        191.7       190.8       189.8       188.8       187.9       186.9       185.9       184.9       183.9       182.9    
  69    260.3       259.2       258.1       257.1       256.0       254.9       253.9       252.8       251.8       250.7    
        249.7       248.6       247.5       246.5       245.4       244.4       243.3       242.3       241.2       240.2    
        239.1       238.1       237.1       236.0       235.0       234.0       233.0       232.0       231.0       230.0    
        229.0       228.0       227.0       226.0       225.0       224.1       223.1       222.2       221.2       220.3    
        219.3       218.4       217.5       216.5       215.6       214.7       213.8       212.9       212.0       211.0    
        210.1       209.2       208.3       207.4       206.5       205.6       204.7       203.8       202.9       202.0    
        201.1       200.1       199.2       198.3       197.4       196.4       195.5       194.6       193.6       192.7    
        191.7       190.8       189.8       188.8       187.9       186.9       185.9       184.9       183.9       182.9    
  70    260.3       259.2       258.2       257.1       256.1       255.0       253.9       252.9       251.8       250.8    
        249.7       248.7       247.6       246.6       245.5       244.5       243.4       242.4       241.3       240.3    
        239.2       238.2       237.2       236.1       235.1       234.1       233.1       232.1       231.1       230.1    
        229.1       228.1       227.1       226.1       225.1       224.2       223.2       222.3       221.3       220.4    
        219.4       218.5       217.6       216.6       215.7       214.8       213.9       212.9       212.0       211.1    
        210.2       209.3       208.4       207.5       206.6       205.7       204.7       203.8       202.9       202.0    
        201.1       200.2       199.2       198.3       197.4       196.5       195.5       194.6       193.6       192.7    
        191.7       190.8       189.8       188.8       187.8       186.9       185.9       184.9       183.9       182.8    
  71    260.3       259.3       258.2       257.2       256.1       255.0       254.0       252.9       251.9       250.8    
        249.8       248.7       247.7       246.6       245.6       244.5       243.5       242.4       241.4       240.4    
        239.3       238.3       237.3       236.2       235.2       234.2       233.2       232.2       231.2       230.2    
        229.2       228.2       227.2       226.2       225.2       224.3       223.3       222.4       221.4       220.5    
        219.5       218.6       217.6       216.7       215.8       214.9       213.9       213.0       212.1       211.2    
        210.3       209.4       208.4       207.5       206.6       205.7       204.8       203.9       203.0       202.0    
        201.1       200.2       199.3       198.3       197.4       196.5       195.5       194.6       193.6       192.7    
        191.7       190.8       189.8       188.8       187.8       186.8       185.8       184.8       183.8       182.8    
  72    260.4       259.3       258.3       257.2       256.1       255.1       254.0       253.0       251.9       250.9    
        249.8       248.8       247.7       246.7       245.6       244.6       243.5       242.5       241.5       240.4    
        239.4       238.4       237.3       236.3       235.3       234.3       233.3       232.3       231.2       230.2    
        229.3       228.3       227.3       226.3       225.3       224.4       223.4       222.4       221.5       220.5    
        219.6       218.6       217.7       216.8       215.8       214.9       214.0       213.1       212.2       211.2    
        210.3       209.4       208.5       207.6       206.7       205.7       204.8       203.9       203.0       202.1    
        201.1       200.2       199.3       198.4       197.4       196.5       195.5       194.6       193.6       192.7    
        191.7       190.8       189.8       188.8       187.8       186.8       185.8       184.8       183.8       182.8    
  73    260.4       259.3       258.3       257.2       256.2       255.1       254.0       253.0       251.9       250.9    
        249.9       248.8       247.8       246.7       245.7       244.6       243.6       242.6       241.5       240.5    
        239.5       238.4       237.4       236.4       235.4       234.3       233.3       232.3       231.3       230.3    
        229.3       228.3       227.4       226.4       225.4       224.4       223.5       222.5       221.6       220.6    
        219.7       218.7       217.8       216.8       215.9       215.0       214.1       213.1       212.2       211.3    
        210.4       209.5       208.5       207.6       206.7       205.8       204.9       203.9       203.0       202.1    
        201.2       200.2       199.3       198.4       197.4       196.5       195.6       194.6       193.7       192.7    
        191.7       190.8       189.8       188.8       187.8       186.8       185.8       184.8       183.8       182.8    
  74    260.4       259.4       258.3       257.3       256.2       255.1       254.1       253.0       252.0       250.9    
        249.9       248.8       247.8       246.8       245.7       244.7       243.6       242.6       241.6       240.5    
        239.5       238.5       237.5       236.4       235.4       234.4       233.4       232.4       231.4       230.4    
        229.4       228.4       227.4       226.4       225.5       224.5       223.5       222.6       221.6       220.7    
        219.7       218.8       217.8       216.9       216.0       215.0       214.1       213.2       212.3       211.3    
        210.4       209.5       208.6       207.7       206.7       205.8       204.9       204.0       203.0       202.1    
        201.2       200.3       199.3       198.4       197.5       196.5       195.6       194.6       193.7       192.7    
        191.7       190.8       189.8       188.8       187.8       186.8       185.8       184.8       183.8       182.7    
  75    260.5       259.4       258.3       257.3       256.2       255.2       254.1       253.1       252.0       251.0    
        249.9       248.9       247.8       246.8       245.8       244.7       243.7       242.7       241.6       240.6    
        239.6       238.5       237.5       236.5       235.5       234.5       233.5       232.4       231.4       230.4    
        229.5       228.5       227.5       226.5       225.5       224.6       223.6       222.6       221.7       220.7    
        219.8       218.8       217.9       216.9       216.0       215.1       214.2       213.2       212.3       211.4    
        210.4       209.5       208.6       207.7       206.8       205.8       204.9       204.0       203.1       202.1    
        201.2       200.3       199.3       198.4       197.5       196.5       195.6       194.6       193.7       192.7    
        191.7       190.8       189.8       188.8       187.8       186.8       185.8       184.8       183.7       182.7    
  76    260.5       259.4       258.4       257.3       256.3       255.2       254.1       253.1       252.0       251.0    
        249.9       248.9       247.9       246.8       245.8       244.8       243.7       242.7       241.7       240.6    
        239.6       238.6       237.6       236.5       235.5       234.5       233.5       232.5       231.5       230.5    
        229.5       228.5       227.5       226.6       225.6       224.6       223.6       222.7       221.7       220.8    
        219.8       218.9       217.9       217.0       216.1       215.1       214.2       213.3       212.3       211.4    
        210.5       209.6       208.6       207.7       206.8       205.9       204.9       204.0       203.1       202.2    
        201.2       200.3       199.4       198.4       197.5       196.5       195.6       194.6       193.7       192.7    
        191.7       190.8       189.8       188.8       187.8       186.8       185.8       184.7       183.7       182.7    
  77    260.5       259.5       258.4       257.3       256.3       255.2       254.2       253.1       252.1       251.0    
        250.0       248.9       247.9       246.9       245.8       244.8       243.8       242.7       241.7       240.7    
        239.6       238.6       237.6       236.6       235.6       234.5       233.5       232.5       231.5       230.5    
        229.5       228.6       227.6       226.6       225.6       224.6       223.7       222.7       221.8       220.8    
        219.9       218.9       218.0       217.0       216.1       215.1       214.2       213.3       212.4       211.4    
        210.5       209.6       208.7       207.7       206.8       205.9       205.0       204.0       203.1       202.2    
        201.2       200.3       199.4       198.4       197.5       196.5       195.6       194.6       193.7       192.7    
        191.7       190.7       189.8       188.8       187.8       186.8       185.7       184.7       183.7       182.6    
  78    260.6       259.5       258.4       257.4       256.3       255.2       254.2       253.1       252.1       251.0    
        250.0       249.0       247.9       246.9       245.8       244.8       243.8       242.7       241.7       240.7    
        239.7       238.6       237.6       236.6       235.6       234.6       233.6       232.6       231.6       230.6    
        229.6       228.6       227.6       226.6       225.6       224.7       223.7       222.7       221.8       220.8    
        219.9       218.9       218.0       217.0       216.1       215.2       214.2       213.3       212.4       211.5    
        210.5       209.6       208.7       207.7       206.8       205.9       205.0       204.0       203.1       202.2    
        201.3       200.3       199.4       198.4       197.5       196.5       195.6       194.6       193.7       192.7    
        191.7       190.7       189.8       188.8       187.8       186.7       185.7       184.7       183.7       182.6    
  79    260.6       259.5       258.4       257.4       256.3       255.2       254.2       253.1       252.1       251.0    
        250.0       249.0       247.9       246.9       245.9       244.8       243.8       242.8       241.7       240.7    
        239.7       238.6       237.6       236.6       235.6       234.6       233.6       232.6       231.6       230.6    
        229.6       228.6       227.6       226.6       225.7       224.7       223.7       222.8       221.8       220.8    
        219.9       218.9       218.0       217.1       216.1       215.2       214.3       213.3       212.4       211.5    
        210.5       209.6       208.7       207.8       206.8       205.9       205.0       204.1       203.1       202.2    
        201.3       200.3       199.4       198.4       197.5       196.5       195.6       194.6       193.7       192.7    
        191.7       190.7       189.8       188.8       187.8       186.7       185.7       184.7       183.6       182.6    
  80    260.6       259.5       258.5       257.4       256.3       255.2       254.2       253.1       252.1       251.0    
        250.0       249.0       247.9       246.9       245.9       244.8       243.8       242.8       241.7       240.7    
        239.7       238.7       237.6       236.6       235.6       234.6       233.6       232.6       231.6       230.6    
        229.6       228.6       227.6       226.6       225.7       224.7       223.7       222.8       221.8       220.9    
        219.9       219.0       218.0       217.1       216.1       215.2       214.3       213.3       212.4       211.5    
        210.5       209.6       208.7       207.8       206.8       205.9       205.0       204.1       203.1       202.2    
        201.3       200.3       199.4       198.4       197.5       196.5       195.6       194.6       193.7       192.7    
        191.7       190.7       189.8       188.8       187.8       186.7       185.7       184.7       183.6       182.5    

 HEAD WILL BE SAVED ON UNIT   51 AT END OF TIME STEP    1, STRESS PERIOD    1
1
  VOLUMETRIC BUDGET FOR ENTIRE MODEL AT END OF TIME STEP    1, STRESS PERIOD   1
  ------------------------------------------------------------------------------

     CUMULATIVE VOLUMES      L**3       RATES FOR THIS TIME STEP      L**3/T
     ------------------                 ------------------------

           IN:                                      IN:
           ---                                      ---
             STORAGE =           0.0000               STORAGE =           0.0000
       CONSTANT HEAD =       22986.0723         CONSTANT HEAD =       22986.0723
               WELLS =           0.0000                 WELLS =           0.0000
            RECHARGE =        1347.7500              RECHARGE =        1347.7500

            TOTAL IN =       24333.8223              TOTAL IN =       24333.8223

          OUT:                                     OUT:
          ----                                     ----
             STORAGE =           0.0000               STORAGE =           0.0000
       CONSTANT HEAD =       13523.6777         CONSTANT HEAD =       13523.6777
               WELLS =       10810.1445                 WELLS =       10810.1445
            RECHARGE =           0.0000              RECHARGE =           0.0000

           TOTAL OUT =       24333.8223             TOTAL OUT =       24333.8223

            IN - OUT =           0.0000              IN - OUT =           0.0000

 PERCENT DISCREPANCY =           0.00     PERCENT DISCREPANCY =           0.00






         TIME SUMMARY AT END OF TIME STEP    1 IN STRESS PERIOD    1
                    SECONDS     MINUTES      HOURS       DAYS        YEARS
                    -----------------------------------------------------------
   TIME STEP LENGTH  86400.      1440.0      24.000      1.0000     2.73785E-03
 STRESS PERIOD TIME  86400.      1440.0      24.000      1.0000     2.73785E-03
         TOTAL TIME  86400.      1440.0      24.000      1.0000     2.73785E-03
1

 Run end date and time (yyyy/mm/dd hh:mm:ss): 2026/02/14 17:06:26
 Elapsed run time:  0.046 Seconds

