                                  MODFLOW-2005     
      U.S. GEOLOGICAL SURVEY MODULAR FINITE-DIFFERENCE GROUND-WATER FLOW MODEL
                            VERSION 1.12.00 2/3/2017

 LIST FILE: OneLayer.list
                         UNIT    2

 OPENING OneLayer.dis
 FILE TYPE:DIS   UNIT   11   STATUS:OLD    
 FORMAT:FORMATTED              ACCESS:SEQUENTIAL          

 OPENING OneLayer.bas
 FILE TYPE:BAS6   UNIT   13   STATUS:OLD    
 FORMAT:FORMATTED              ACCESS:SEQUENTIAL          

 OPENING OneLayer.lpf
 FILE TYPE:LPF   UNIT   15   STATUS:OLD    
 FORMAT:FORMATTED              ACCESS:SEQUENTIAL          

 OPENING OneLayer.rch
 FILE TYPE:RCH   UNIT   19   STATUS:OLD    
 FORMAT:FORMATTED              ACCESS:SEQUENTIAL          

 OPENING OneLayer.wel
 FILE TYPE:WEL   UNIT   20   STATUS:OLD    
 FORMAT:FORMATTED              ACCESS:SEQUENTIAL          

 OPENING OneLayer.oc
 FILE TYPE:OC   UNIT   14   STATUS:OLD    
 FORMAT:FORMATTED              ACCESS:SEQUENTIAL          

 OPENING OneLayer.pcg
 FILE TYPE:PCG   UNIT   27   STATUS:OLD    
 FORMAT:FORMATTED              ACCESS:SEQUENTIAL          

 OPENING OneLayer.cbc
 FILE TYPE:DATA(BINARY)   UNIT   53   STATUS:REPLACE
 FORMAT:UNFORMATTED            ACCESS:STREAM              

 OPENING OneLayer.hds
 FILE TYPE:DATA(BINARY)   UNIT   51   STATUS:REPLACE
 FORMAT:UNFORMATTED            ACCESS:STREAM              

 BAS -- BASIC PACKAGE, VERSION 7, 5/2/2005 INPUT READ FROM UNIT   13
 
 MODFLOW was compiled using mixed precision
 Precision of REAL variables:           6
 Precision of DOUBLE PRECISION variables:          15

 DISCRETIZATION INPUT DATA READ FROM UNIT   11
 # DIS package for MODFLOW-2005 generated by Flopy 3.10.0
    1 LAYERS        50 ROWS        50 COLUMNS
    1 STRESS PERIOD(S) IN SIMULATION
 MODEL TIME UNIT IS DAYS
 MODEL LENGTH UNIT IS METERS
  Confining bed flag for each layer:
   0

                     DELR =   100.000    

                     DELC =   100.000    



           TOP ELEVATION OF LAYER 1
 READING ON UNIT   11 WITH FORMAT: (50E15.6)           

   MODEL LAYER BOTTOM EL. =   0.00000     FOR LAYER   1


 STRESS PERIOD     LENGTH       TIME STEPS     MULTIPLIER FOR DELT    SS FLAG
 ----------------------------------------------------------------------------
        1         1.000000          1                    1.000         SS

 STEADY-STATE SIMULATION



 
 # BAS6 package for MODFLOW-2005 generated by Flopy 3.10.0                       
 THE FREE FORMAT OPTION HAS BEEN SELECTED



                     BOUNDARY ARRAY FOR LAYER   1
 READING ON UNIT   13 WITH FORMAT: (50I10)             

 AQUIFER HEAD WILL BE SET TO  -999.99     AT ALL NO-FLOW NODES (IBOUND=0).



                       INITIAL HEAD FOR LAYER   1
 READING ON UNIT   13 WITH FORMAT: (50E15.6)           
 # OC package for MODFLOW-2005 generated by Flopy 3.10.0

 OUTPUT CONTROL IS SPECIFIED ONLY AT TIME STEPS FOR WHICH OUTPUT IS DESIRED
 COMPACT CELL-BY-CELL BUDGET FILES WILL BE WRITTEN
 AUXILIARY DATA WILL BE SAVED IN CELL-BY-CELL BUDGET FILES
 HEAD PRINT FORMAT CODE IS   0    DRAWDOWN PRINT FORMAT CODE IS   0
 HEADS WILL BE SAVED ON UNIT   51    DRAWDOWNS WILL BE SAVED ON UNIT    0

 LPF -- LAYER-PROPERTY FLOW PACKAGE, VERSION 7, 5/2/2005
         INPUT READ FROM UNIT   15
 # LPF package for MODFLOW-2005 generated by Flopy 3.10.0
 CELL-BY-CELL FLOWS WILL BE SAVED ON UNIT   53
 HEAD AT CELLS THAT CONVERT TO DRY= -1.00000E+30
 No named parameters
 STORAGECOEFFICIENT OPTION:
 Read storage coefficient rather than specific storage

   LAYER FLAGS:
 LAYER       LAYTYP        LAYAVG         CHANI        LAYVKA        LAYWET
 ---------------------------------------------------------------------------
    1             1             0     1.000E+00             0             0

   INTERPRETATION OF LAYER FLAGS:
                        INTERBLOCK     HORIZONTAL    DATA IN
         LAYER TYPE   TRANSMISSIVITY   ANISOTROPY   ARRAY VKA   WETTABILITY
 LAYER      (LAYTYP)      (LAYAVG)       (CHANI)      (LAYVKA)      (LAYWET)
 ---------------------------------------------------------------------------
    1   CONVERTIBLE      HARMONIC     1.000E+00    VERTICAL K  NON-WETTABLE

 WETTING CAPABILITY IS NOT ACTIVE IN ANY LAYER

    HYD. COND. ALONG ROWS =  0.750000     FOR LAYER   1

      VERTICAL HYD. COND. =  0.250000     FOR LAYER   1

 WEL -- WELL PACKAGE, VERSION 7, 5/2/2005 INPUT READ FROM UNIT   20
 # WEL package for MODFLOW-2005 generated by Flopy 3.10.0
 No named parameters
 MAXIMUM OF      1 ACTIVE WELLS AT ONE TIME


     0 Well parameters

 RCH -- RECHARGE PACKAGE, VERSION 7, 5/2/2005 INPUT READ FROM UNIT   19
 # RCH package for MODFLOW-2005 generated by Flopy 3.10.0
 No named parameters
 OPTION 3 -- RECHARGE TO HIGHEST ACTIVE NODE IN EACH VERTICAL COLUMN
 CELL-BY-CELL FLOWS WILL BE SAVED ON UNIT   53


     0 Recharge parameters

 PCG -- CONJUGATE-GRADIENT SOLUTION PACKAGE, VERSION 7, 5/2/2005
 # PCG package for MODFLOW-2005 generated by Flopy 3.10.0
 MAXIMUM OF     50 CALLS OF SOLUTION ROUTINE
 MAXIMUM OF     30 INTERNAL ITERATIONS PER CALL TO SOLUTION ROUTINE
 MATRIX PRECONDITIONING TYPE :    1



                                    SOLUTION BY THE CONJUGATE-GRADIENT METHOD
                                   -------------------------------------------
                    MAXIMUM NUMBER OF CALLS TO PCG ROUTINE =       50
                        MAXIMUM ITERATIONS PER CALL TO PCG =       30
                               MATRIX PRECONDITIONING TYPE =        1
        RELAXATION FACTOR (ONLY USED WITH PRECOND. TYPE 1) =    0.10000E+01
 PARAMETER OF POLYNOMIAL PRECOND. = 2 (2) OR IS CALCULATED :        0
                         HEAD CHANGE CRITERION FOR CLOSURE =    0.10000E-04
                     RESIDUAL CHANGE CRITERION FOR CLOSURE =    0.10000E-04
            PCG HEAD AND RESIDUAL CHANGE PRINTOUT INTERVAL =      999
     PRINTING FROM SOLVER IS LIMITED(1) OR SUPPRESSED (>1) =        3
                            STEADY-STATE DAMPING PARAMETER =    0.10000E+01
                               TRANSIENT DAMPING PARAMETER =    0.10000E+01
1
                            STRESS PERIOD NO.    1, LENGTH =   1.000000    
                            -----------------------------------------------

                              NUMBER OF TIME STEPS =     1

                               MULTIPLIER FOR DELT =     1.000

                            INITIAL TIME STEP SIZE =   1.000000    

 WELL NO.  LAYER   ROW   COL   STRESS RATE         
 --------------------------------------------------
      1      1     25     25      -500.0    

      1 WELL 



                           RECHARGE
 READING ON UNIT   19 WITH FORMAT: (50E15.6)           
 
 SOLVING FOR HEAD 

 OUTPUT CONTROL FOR STRESS PERIOD    1   TIME STEP    1
    PRINT HEAD FOR ALL LAYERS
    PRINT BUDGET
    SAVE HEAD FOR ALL LAYERS
    SAVE BUDGET
 UBDSV2 SAVING "   CONSTANT HEAD" ON UNIT  53 AT TIME STEP  1, STRESS PERIOD   1
 UBDSV1 SAVING "FLOW RIGHT FACE " ON UNIT  53 AT TIME STEP  1, STRESS PERIOD   1
 UBDSV1 SAVING "FLOW FRONT FACE " ON UNIT  53 AT TIME STEP  1, STRESS PERIOD   1
 UBDSV3 SAVING "        RECHARGE" ON UNIT  53 AT TIME STEP  1, STRESS PERIOD   1
1
              HEAD IN LAYER   1 AT END OF TIME STEP   1 IN STRESS PERIOD    1
  ---------------------------------------------------------------------------

            1           2           3           4           5           6           7           8           9          10
           11          12          13          14          15          16          17          18          19          20
           21          22          23          24          25          26          27          28          29          30
           31          32          33          34          35          36          37          38          39          40
           41          42          43          44          45          46          47          48          49          50
 ........................................................................................................................
   1    85.00       84.84       84.68       84.50       84.32       84.13       83.93       83.73       83.52       83.30    
        83.08       82.85       82.61       82.37       82.12       81.87       81.61       81.35       81.08       80.80    
        80.53       80.24       79.96       79.67       79.37       79.07       78.77       78.47       78.15       77.84    
        77.52       77.19       76.86       76.52       76.18       75.83       75.47       75.11       74.73       74.35    
        73.96       73.56       73.16       72.74       72.31       71.87       71.42       70.96       70.49       70.00    
   2    85.00       84.84       84.68       84.50       84.32       84.13       83.93       83.73       83.52       83.30    
        83.08       82.85       82.61       82.37       82.12       81.86       81.61       81.34       81.07       80.80    
        80.52       80.24       79.95       79.66       79.37       79.07       78.77       78.46       78.15       77.83    
        77.51       77.19       76.86       76.52       76.17       75.82       75.47       75.10       74.73       74.35    
        73.96       73.56       73.15       72.74       72.31       71.87       71.42       70.96       70.49       70.00    
   3    85.00       84.84       84.67       84.50       84.32       84.13       83.93       83.73       83.51       83.30    
        83.07       82.84       82.60       82.36       82.11       81.86       81.60       81.33       81.06       80.79    
        80.51       80.23       79.94       79.65       79.36       79.06       78.76       78.45       78.14       77.82    
        77.50       77.18       76.85       76.51       76.17       75.82       75.46       75.10       74.73       74.35    
        73.96       73.56       73.15       72.73       72.31       71.87       71.42       70.96       70.49       70.00    
   4    85.00       84.84       84.67       84.50       84.31       84.12       83.93       83.72       83.51       83.29    
        83.07       82.83       82.59       82.35       82.10       81.85       81.58       81.32       81.05       80.77    
        80.50       80.21       79.93       79.64       79.34       79.04       78.74       78.43       78.12       77.81    
        77.49       77.16       76.83       76.50       76.16       75.81       75.45       75.09       74.72       74.34    
        73.95       73.55       73.15       72.73       72.30       71.87       71.42       70.96       70.48       70.00    
   5    85.00       84.84       84.67       84.50       84.31       84.12       83.92       83.72       83.50       83.28    
        83.06       82.82       82.58       82.34       82.09       81.83       81.57       81.30       81.03       80.76    
        80.48       80.19       79.90       79.61       79.32       79.02       78.72       78.41       78.10       77.79    
        77.47       77.15       76.82       76.48       76.14       75.79       75.44       75.08       74.71       74.33    
        73.94       73.55       73.14       72.73       72.30       71.86       71.42       70.96       70.48       70.00    
   6    85.00       84.84       84.67       84.49       84.31       84.12       83.92       83.71       83.49       83.27    
        83.04       82.81       82.57       82.32       82.07       81.81       81.55       81.28       81.01       80.73    
        80.45       80.17       79.88       79.59       79.29       78.99       78.69       78.38       78.08       77.76    
        77.44       77.12       76.79       76.46       76.12       75.78       75.42       75.06       74.69       74.32    
        73.93       73.54       73.13       72.72       72.29       71.86       71.41       70.95       70.48       70.00    
   7    85.00       84.84       84.67       84.49       84.30       84.11       83.91       83.70       83.48       83.26    
        83.03       82.80       82.55       82.30       82.05       81.79       81.52       81.25       80.98       80.70    
        80.42       80.13       79.84       79.55       79.26       78.96       78.66       78.35       78.04       77.73    
        77.42       77.09       76.77       76.44       76.10       75.76       75.40       75.05       74.68       74.30    
        73.92       73.53       73.12       72.71       72.29       71.85       71.41       70.95       70.48       70.00    
   8    85.00       84.84       84.66       84.49       84.30       84.10       83.90       83.69       83.47       83.25    
        83.02       82.78       82.53       82.28       82.03       81.76       81.50       81.22       80.95       80.67    
        80.38       80.09       79.80       79.51       79.22       78.92       78.62       78.31       78.01       77.70    
        77.38       77.06       76.74       76.41       76.07       75.73       75.38       75.03       74.66       74.29    
        73.91       73.52       73.11       72.70       72.28       71.85       71.40       70.95       70.48       70.00    
   9    85.00       84.83       84.66       84.48       84.29       84.09       83.89       83.68       83.46       83.23    
        83.00       82.76       82.51       82.26       82.00       81.73       81.46       81.19       80.91       80.63    
        80.34       80.05       79.76       79.46       79.17       78.87       78.57       78.27       77.96       77.65    
        77.34       77.02       76.70       76.38       76.04       75.70       75.36       75.00       74.64       74.27    
        73.89       73.50       73.10       72.69       72.27       71.84       71.40       70.95       70.48       70.00    
  10    85.00       84.83       84.66       84.48       84.29       84.09       83.88       83.67       83.44       83.22    
        82.98       82.74       82.49       82.23       81.97       81.70       81.43       81.15       80.86       80.58    
        80.29       80.00       79.70       79.41       79.11       78.81       78.52       78.21       77.91       77.60    
        77.29       76.98       76.66       76.34       76.01       75.67       75.33       74.98       74.62       74.25    
        73.87       73.49       73.09       72.68       72.26       71.83       71.39       70.94       70.48       70.00    
  11    85.00       84.83       84.66       84.47       84.28       84.08       83.87       83.65       83.43       83.20    
        82.96       82.71       82.46       82.20       81.93       81.66       81.38       81.10       80.82       80.53    
        80.23       79.94       79.64       79.35       79.05       78.75       78.45       78.15       77.85       77.55    
        77.24       76.93       76.62       76.30       75.97       75.64       75.30       74.95       74.60       74.23    
        73.86       73.47       73.08       72.67       72.25       71.83       71.39       70.94       70.48       70.00    
  12    85.00       84.83       84.65       84.47       84.27       84.07       83.86       83.64       83.41       83.18    
        82.94       82.69       82.43       82.17       81.90       81.62       81.34       81.05       80.76       80.47    
        80.17       79.87       79.57       79.27       78.98       78.68       78.38       78.08       77.79       77.49    
        77.18       76.88       76.57       76.25       75.93       75.60       75.27       74.92       74.57       74.21    
        73.84       73.45       73.06       72.66       72.25       71.82       71.38       70.93       70.47       70.00    
  13    85.00       84.83       84.65       84.46       84.26       84.06       83.84       83.62       83.39       83.16    
        82.91       82.66       82.40       82.13       81.85       81.57       81.29       80.99       80.70       80.40    
        80.10       79.80       79.49       79.19       78.89       78.60       78.30       78.01       77.71       77.42    
        77.12       76.82       76.52       76.21       75.89       75.56       75.23       74.89       74.54       74.18    
        73.82       73.44       73.05       72.65       72.23       71.81       71.38       70.93       70.47       70.00    
  14    85.00       84.83       84.64       84.45       84.25       84.05       83.83       83.61       83.38       83.14    
        82.89       82.63       82.36       82.09       81.81       81.52       81.23       80.93       80.63       80.33    
        80.02       79.71       79.40       79.10       78.80       78.50       78.21       77.92       77.63       77.34    
        77.05       76.76       76.46       76.15       75.84       75.52       75.20       74.86       74.52       74.16    
        73.79       73.42       73.03       72.63       72.22       71.80       71.37       70.93       70.47       70.00    
  15    85.00       84.82       84.64       84.45       84.25       84.04       83.82       83.59       83.36       83.11    
        82.86       82.60       82.33       82.05       81.77       81.47       81.17       80.87       80.56       80.24    
        79.93       79.61       79.30       78.99       78.69       78.40       78.11       77.82       77.54       77.25    
        76.97       76.69       76.39       76.10       75.79       75.48       75.16       74.83       74.49       74.14    
        73.77       73.40       73.02       72.62       72.21       71.80       71.37       70.92       70.47       70.00    
  16    85.00       84.82       84.64       84.44       84.24       84.03       83.81       83.58       83.34       83.09    
        82.84       82.57       82.30       82.01       81.72       81.42       81.11       80.80       80.48       80.15    
        79.83       79.50       79.19       78.87       78.57       78.27       77.99       77.71       77.43       77.16    
        76.89       76.61       76.33       76.04       75.74       75.44       75.12       74.79       74.46       74.11    
        73.75       73.38       73.00       72.61       72.20       71.79       71.36       70.92       70.47       70.00    
  17    85.00       84.82       84.63       84.44       84.23       84.02       83.79       83.56       83.32       83.07    
        82.81       82.54       82.26       81.97       81.67       81.36       81.04       80.72       80.39       80.05    
        79.72       79.38       79.05       78.73       78.43       78.13       77.85       77.58       77.32       77.06    
        76.80       76.53       76.26       75.98       75.69       75.39       75.08       74.76       74.43       74.09    
        73.73       73.36       72.99       72.60       72.19       71.78       71.35       70.91       70.46       70.00    
  18    85.00       84.82       84.63       84.43       84.22       84.01       83.78       83.55       83.30       83.05    
        82.79       82.51       82.23       81.93       81.62       81.31       80.98       80.64       80.30       79.95    
        79.59       79.24       78.90       78.57       78.26       77.97       77.70       77.44       77.19       76.95    
        76.70       76.45       76.19       75.92       75.64       75.34       75.04       74.73       74.40       74.06    
        73.71       73.35       72.97       72.58       72.18       71.77       71.35       70.91       70.46       70.00    
  19    85.00       84.82       84.63       84.43       84.22       84.00       83.77       83.54       83.29       83.03    
        82.76       82.48       82.19       81.89       81.58       81.25       80.91       80.56       80.20       79.83    
        79.46       79.09       78.72       78.38       78.06       77.78       77.52       77.28       77.05       76.83    
        76.60       76.36       76.11       75.86       75.59       75.30       75.01       74.70       74.37       74.04    
        73.69       73.33       72.96       72.57       72.18       71.77       71.34       70.91       70.46       70.00    
  20    85.00       84.82       84.62       84.42       84.21       83.99       83.76       83.52       83.27       83.01    
        82.74       82.46       82.16       81.85       81.53       81.19       80.84       80.48       80.10       79.71    
        79.31       78.91       78.52       78.15       77.82       77.55       77.31       77.10       76.90       76.70    
        76.49       76.28       76.04       75.80       75.54       75.26       74.97       74.67       74.35       74.02    
        73.67       73.32       72.95       72.56       72.17       71.76       71.34       70.90       70.46       70.00    
  21    85.00       84.81       84.62       84.42       84.21       83.99       83.75       83.51       83.26       83.00    
        82.72       82.43       82.13       81.82       81.49       81.14       80.78       80.40       80.00       79.59    
        79.16       78.72       78.28       77.87       77.53       77.27       77.07       76.90       76.74       76.57    
        76.39       76.19       75.98       75.74       75.49       75.23       74.94       74.64       74.33       74.00    
        73.66       73.31       72.94       72.56       72.16       71.75       71.33       70.90       70.46       70.00    
  22    85.00       84.81       84.62       84.42       84.20       83.98       83.75       83.50       83.25       82.99    
        82.71       82.42       82.11       81.79       81.46       81.10       80.73       80.33       79.91       79.47    
        79.00       78.50       78.00       77.52       77.13       76.91       76.78       76.68       76.58       76.45    
        76.30       76.12       75.92       75.70       75.46       75.20       74.92       74.62       74.31       73.99    
        73.65       73.30       72.93       72.55       72.16       71.75       71.33       70.90       70.46       70.00    
  23    85.00       84.81       84.62       84.41       84.20       83.98       83.74       83.50       83.24       82.98    
        82.70       82.40       82.10       81.77       81.43       81.07       80.69       80.28       79.84       79.37    
        78.85       78.29       77.68       77.06       76.56       76.45       76.46       76.46       76.43       76.34    
        76.22       76.06       75.88       75.66       75.43       75.17       74.90       74.61       74.30       73.98    
        73.64       73.29       72.92       72.54       72.15       71.75       71.33       70.90       70.46       70.00    
  24    85.00       84.81       84.62       84.41       84.20       83.97       83.74       83.50       83.24       82.97    
        82.69       82.39       82.09       81.76       81.41       81.05       80.66       80.24       79.79       79.29    
        78.74       78.11       77.36       76.47       75.57       75.85       76.13       76.28       76.31       76.27    
        76.17       76.03       75.85       75.64       75.41       75.16       74.89       74.60       74.29       73.97    
        73.64       73.28       72.92       72.54       72.15       71.75       71.33       70.90       70.46       70.00    
  25    85.00       84.81       84.62       84.41       84.20       83.97       83.74       83.49       83.24       82.97    
        82.69       82.39       82.08       81.76       81.41       81.04       80.65       80.23       79.77       79.27    
        78.70       78.02       77.16       75.88       73.33       75.25       75.93       76.19       76.27       76.24    
        76.15       76.01       75.84       75.63       75.41       75.15       74.88       74.60       74.29       73.97    
        73.63       73.28       72.92       72.54       72.15       71.75       71.33       70.90       70.46       70.00    
  26    85.00       84.81       84.62       84.41       84.20       83.97       83.74       83.50       83.24       82.97    
        82.69       82.40       82.09       81.76       81.42       81.05       80.66       80.24       79.79       79.30    
        78.74       78.11       77.36       76.47       75.57       75.86       76.13       76.28       76.31       76.27    
        76.17       76.03       75.85       75.64       75.41       75.16       74.89       74.60       74.29       73.97    
        73.64       73.29       72.92       72.54       72.15       71.75       71.33       70.90       70.46       70.00    
  27    85.00       84.81       84.62       84.41       84.20       83.98       83.74       83.50       83.24       82.98    
        82.70       82.41       82.10       81.77       81.43       81.07       80.69       80.28       79.84       79.37    
        78.86       78.29       77.68       77.06       76.56       76.45       76.46       76.47       76.43       76.35    
        76.22       76.07       75.88       75.67       75.43       75.18       74.90       74.61       74.30       73.98    
        73.64       73.29       72.92       72.55       72.15       71.75       71.33       70.90       70.46       70.00    
  28    85.00       84.81       84.62       84.42       84.20       83.98       83.75       83.51       83.25       82.99    
        82.71       82.42       82.12       81.80       81.46       81.11       80.73       80.34       79.92       79.47    
        79.00       78.51       78.00       77.52       77.14       76.92       76.79       76.69       76.58       76.46    
        76.30       76.13       75.93       75.70       75.46       75.20       74.92       74.63       74.32       73.99    
        73.65       73.30       72.93       72.55       72.16       71.75       71.33       70.90       70.46       70.00    
  29    85.00       84.82       84.62       84.42       84.21       83.99       83.76       83.52       83.26       83.00    
        82.73       82.44       82.14       81.82       81.50       81.15       80.79       80.41       80.01       79.59    
        79.16       78.72       78.29       77.88       77.53       77.27       77.07       76.91       76.75       76.58    
        76.40       76.20       75.99       75.75       75.50       75.23       74.95       74.65       74.33       74.01    
        73.66       73.31       72.94       72.56       72.16       71.76       71.34       70.90       70.46       70.00    
  30    85.00       84.82       84.62       84.42       84.21       83.99       83.77       83.53       83.28       83.02    
        82.75       82.46       82.17       81.86       81.54       81.20       80.85       80.49       80.11       79.72    
        79.32       78.92       78.53       78.16       77.83       77.56       77.32       77.11       76.91       76.71    
        76.50       76.28       76.05       75.81       75.54       75.27       74.98       74.67       74.36       74.02    
        73.68       73.32       72.95       72.57       72.17       71.76       71.34       70.91       70.46       70.00    
  31    85.00       84.82       84.63       84.43       84.22       84.00       83.78       83.54       83.29       83.04    
        82.77       82.49       82.20       81.90       81.58       81.26       80.92       80.57       80.21       79.84    
        79.47       79.10       78.74       78.39       78.07       77.79       77.53       77.29       77.06       76.84    
        76.61       76.37       76.12       75.87       75.59       75.31       75.01       74.70       74.38       74.05    
        73.70       73.34       72.96       72.58       72.18       71.77       71.35       70.91       70.46       70.00    
  32    85.00       84.82       84.63       84.43       84.23       84.01       83.79       83.55       83.31       83.06    
        82.79       82.52       82.23       81.94       81.63       81.32       80.99       80.65       80.31       79.96    
        79.61       79.26       78.91       78.58       78.27       77.98       77.71       77.45       77.21       76.96    
        76.71       76.46       76.20       75.93       75.65       75.36       75.05       74.74       74.41       74.07    
        73.72       73.35       72.98       72.59       72.19       71.78       71.35       70.91       70.46       70.00    
  33    85.00       84.82       84.63       84.44       84.23       84.02       83.80       83.57       83.33       83.08    
        82.82       82.55       82.27       81.98       81.68       81.37       81.06       80.73       80.40       80.07    
        79.73       79.40       79.07       78.75       78.44       78.15       77.87       77.60       77.33       77.07    
        76.81       76.54       76.27       75.99       75.70       75.40       75.09       74.77       74.44       74.09    
        73.74       73.37       72.99       72.60       72.20       71.78       71.36       70.92       70.46       70.00    
  34    85.00       84.82       84.64       84.45       84.24       84.03       83.81       83.58       83.35       83.10    
        82.85       82.58       82.31       82.02       81.73       81.43       81.12       80.81       80.49       80.17    
        79.84       79.52       79.20       78.89       78.59       78.29       78.01       77.73       77.45       77.18    
        76.90       76.63       76.34       76.05       75.76       75.45       75.13       74.81       74.47       74.12    
        73.76       73.39       73.01       72.62       72.21       71.79       71.36       70.92       70.47       70.00    
  35    85.00       84.83       84.64       84.45       84.25       84.04       83.83       83.60       83.37       83.12    
        82.87       82.61       82.34       82.07       81.78       81.49       81.19       80.88       80.57       80.26    
        79.95       79.63       79.32       79.01       78.71       78.42       78.13       77.84       77.56       77.27    
        76.99       76.70       76.41       76.11       75.81       75.50       75.17       74.84       74.50       74.15    
        73.78       73.41       73.03       72.63       72.22       71.80       71.37       70.93       70.47       70.00    
  36    85.00       84.83       84.65       84.46       84.26       84.05       83.84       83.62       83.39       83.15    
        82.90       82.64       82.38       82.11       81.83       81.54       81.25       80.95       80.65       80.35    
        80.04       79.73       79.43       79.12       78.82       78.52       78.23       77.94       77.65       77.36    
        77.07       76.78       76.48       76.17       75.86       75.54       75.21       74.88       74.53       74.17    
        73.81       73.43       73.04       72.64       72.23       71.81       71.38       70.93       70.47       70.00    
  37    85.00       84.83       84.65       84.46       84.27       84.06       83.85       83.63       83.41       83.17    
        82.93       82.67       82.41       82.15       81.87       81.59       81.31       81.02       80.72       80.42    
        80.12       79.82       79.52       79.22       78.92       78.62       78.33       78.03       77.74       77.44    
        77.14       76.84       76.54       76.23       75.91       75.58       75.25       74.91       74.56       74.20    
        73.83       73.45       73.06       72.66       72.24       71.82       71.38       70.93       70.47       70.00    
  38    85.00       84.83       84.65       84.47       84.28       84.08       83.87       83.65       83.42       83.19    
        82.95       82.70       82.45       82.18       81.92       81.64       81.36       81.07       80.78       80.49    
        80.19       79.90       79.60       79.30       79.00       78.71       78.41       78.11       77.81       77.51    
        77.21       76.90       76.59       76.28       75.95       75.62       75.29       74.94       74.59       74.22    
        73.85       73.47       73.07       72.67       72.25       71.83       71.39       70.94       70.48       70.00    
  39    85.00       84.83       84.66       84.48       84.28       84.09       83.88       83.66       83.44       83.21    
        82.97       82.73       82.48       82.22       81.95       81.68       81.41       81.13       80.84       80.55    
        80.26       79.97       79.67       79.38       79.08       78.78       78.48       78.18       77.88       77.58    
        77.27       76.96       76.64       76.32       76.00       75.66       75.32       74.97       74.62       74.25    
        73.87       73.49       73.09       72.68       72.26       71.84       71.39       70.94       70.48       70.00    
  40    85.00       84.84       84.66       84.48       84.29       84.10       83.89       83.68       83.46       83.23    
        83.00       82.76       82.51       82.25       81.99       81.72       81.45       81.17       80.89       80.61    
        80.32       80.03       79.74       79.44       79.14       78.85       78.55       78.25       77.94       77.63    
        77.32       77.01       76.69       76.37       76.04       75.70       75.35       75.00       74.64       74.27    
        73.89       73.50       73.10       72.69       72.27       71.84       71.40       70.95       70.48       70.00    
  41    85.00       84.84       84.67       84.49       84.30       84.10       83.90       83.69       83.47       83.25    
        83.02       82.78       82.53       82.28       82.02       81.76       81.49       81.22       80.94       80.66    
        80.37       80.08       79.79       79.50       79.20       78.90       78.60       78.30       78.00       77.69    
        77.37       77.06       76.73       76.41       76.07       75.73       75.38       75.03       74.66       74.29    
        73.91       73.52       73.12       72.71       72.28       71.85       71.41       70.95       70.48       70.00    
  42    85.00       84.84       84.67       84.49       84.31       84.11       83.91       83.70       83.49       83.27    
        83.04       82.80       82.56       82.31       82.05       81.79       81.53       81.26       80.98       80.70    
        80.42       80.13       79.84       79.55       79.25       78.95       78.65       78.35       78.04       77.73    
        77.42       77.10       76.77       76.44       76.10       75.76       75.41       75.05       74.69       74.31    
        73.93       73.53       73.13       72.72       72.29       71.86       71.41       70.95       70.48       70.00    
  43    85.00       84.84       84.67       84.50       84.31       84.12       83.92       83.72       83.50       83.28    
        83.05       82.82       82.58       82.33       82.08       81.82       81.56       81.29       81.02       80.74    
        80.46       80.17       79.88       79.59       79.30       79.00       78.70       78.39       78.08       77.77    
        77.45       77.13       76.80       76.47       76.13       75.79       75.43       75.07       74.71       74.33    
        73.94       73.55       73.14       72.73       72.30       71.86       71.42       70.96       70.48       70.00    
  44    85.00       84.84       84.67       84.50       84.32       84.13       83.93       83.73       83.51       83.29    
        83.07       82.84       82.60       82.35       82.10       81.85       81.58       81.32       81.05       80.77    
        80.49       80.21       79.92       79.63       79.33       79.04       78.73       78.43       78.12       77.80    
        77.49       77.16       76.83       76.50       76.16       75.81       75.46       75.09       74.72       74.34    
        73.96       73.56       73.15       72.74       72.31       71.87       71.42       70.96       70.49       70.00    
  45    85.00       84.84       84.68       84.50       84.32       84.13       83.94       83.73       83.52       83.31    
        83.08       82.85       82.61       82.37       82.12       81.87       81.61       81.34       81.07       80.80    
        80.52       80.24       79.95       79.66       79.37       79.07       78.77       78.46       78.15       77.83    
        77.51       77.19       76.86       76.52       76.18       75.83       75.47       75.11       74.74       74.36    
        73.97       73.57       73.16       72.74       72.31       71.87       71.42       70.96       70.49       70.00    
  46    85.00       84.84       84.68       84.51       84.33       84.14       83.94       83.74       83.53       83.32    
        83.09       82.86       82.63       82.39       82.14       81.89       81.63       81.36       81.09       80.82    
        80.54       80.26       79.98       79.69       79.39       79.09       78.79       78.48       78.17       77.86    
        77.54       77.21       76.88       76.54       76.20       75.85       75.49       75.12       74.75       74.37    
        73.98       73.58       73.17       72.75       72.32       71.88       71.43       70.96       70.49       70.00    
  47    85.00       84.84       84.68       84.51       84.33       84.14       83.95       83.75       83.54       83.32    
        83.10       82.87       82.64       82.40       82.15       81.90       81.64       81.38       81.11       80.84    
        80.56       80.28       80.00       79.71       79.41       79.11       78.81       78.50       78.19       77.88    
        77.55       77.23       76.90       76.56       76.21       75.86       75.50       75.13       74.76       74.38    
        73.99       73.59       73.17       72.75       72.32       71.88       71.43       70.97       70.49       70.00    
  48    85.00       84.84       84.68       84.51       84.33       84.15       83.95       83.75       83.54       83.33    
        83.11       82.88       82.65       82.41       82.16       81.91       81.65       81.39       81.12       80.85    
        80.58       80.30       80.01       79.72       79.43       79.13       78.83       78.52       78.21       77.89    
        77.57       77.24       76.91       76.57       76.22       75.87       75.51       75.14       74.77       74.38    
        73.99       73.59       73.18       72.76       72.33       71.89       71.43       70.97       70.49       70.00    
  49    85.00       84.85       84.68       84.51       84.33       84.15       83.95       83.75       83.55       83.33    
        83.11       82.89       82.65       82.41       82.17       81.92       81.66       81.40       81.13       80.86    
        80.59       80.31       80.02       79.73       79.44       79.14       78.84       78.53       78.22       77.90    
        77.58       77.25       76.92       76.58       76.23       75.88       75.52       75.15       74.77       74.39    
        74.00       73.59       73.18       72.76       72.33       71.89       71.43       70.97       70.49       70.00    
  50    85.00       84.85       84.68       84.51       84.33       84.15       83.96       83.76       83.55       83.34    
        83.11       82.89       82.65       82.42       82.17       81.92       81.66       81.40       81.14       80.87    
        80.59       80.31       80.03       79.74       79.44       79.14       78.84       78.53       78.22       77.90    
        77.58       77.25       76.92       76.58       76.23       75.88       75.52       75.15       74.78       74.39    
        74.00       73.60       73.18       72.76       72.33       71.89       71.43       70.97       70.49       70.00    

 HEAD WILL BE SAVED ON UNIT   51 AT END OF TIME STEP    1, STRESS PERIOD    1
1
  VOLUMETRIC BUDGET FOR ENTIRE MODEL AT END OF TIME STEP    1, STRESS PERIOD   1
  ------------------------------------------------------------------------------

     CUMULATIVE VOLUMES      L**3       RATES FOR THIS TIME STEP      L**3/T
     ------------------                 ------------------------

           IN:                                      IN:
           ---                                      ---
             STORAGE =           0.0000               STORAGE =           0.0000
       CONSTANT HEAD =         544.7653         CONSTANT HEAD =         544.7653
               WELLS =           0.0000                 WELLS =           0.0000
            RECHARGE =        1200.0000              RECHARGE =        1200.0000

            TOTAL IN =        1744.7653              TOTAL IN =        1744.7653

          OUT:                                     OUT:
          ----                                     ----
             STORAGE =           0.0000               STORAGE =           0.0000
       CONSTANT HEAD =        1244.7653         CONSTANT HEAD =        1244.7653
               WELLS =         500.0000                 WELLS =         500.0000
            RECHARGE =           0.0000              RECHARGE =           0.0000

           TOTAL OUT =        1744.7653             TOTAL OUT =        1744.7653

            IN - OUT =           0.0000              IN - OUT =           0.0000

 PERCENT DISCREPANCY =           0.00     PERCENT DISCREPANCY =           0.00






         TIME SUMMARY AT END OF TIME STEP    1 IN STRESS PERIOD    1
                    SECONDS     MINUTES      HOURS       DAYS        YEARS
                    -----------------------------------------------------------
   TIME STEP LENGTH  86400.      1440.0      24.000      1.0000     2.73785E-03
 STRESS PERIOD TIME  86400.      1440.0      24.000      1.0000     2.73785E-03
         TOTAL TIME  86400.      1440.0      24.000      1.0000     2.73785E-03
1

 Run end date and time (yyyy/mm/dd hh:mm:ss): 2026/02/26  2:39:10
 Elapsed run time:  0.113 Seconds

