                                  MODFLOW-2005     
      U.S. GEOLOGICAL SURVEY MODULAR FINITE-DIFFERENCE GROUND-WATER FLOW MODEL
                            VERSION 1.12.00 2/3/2017

 LIST FILE: ThreeLayer.list
                         UNIT    2

 OPENING ThreeLayer.dis
 FILE TYPE:DIS   UNIT   11   STATUS:OLD    
 FORMAT:FORMATTED              ACCESS:SEQUENTIAL          

 OPENING ThreeLayer.bas
 FILE TYPE:BAS6   UNIT   13   STATUS:OLD    
 FORMAT:FORMATTED              ACCESS:SEQUENTIAL          

 OPENING ThreeLayer.lpf
 FILE TYPE:LPF   UNIT   15   STATUS:OLD    
 FORMAT:FORMATTED              ACCESS:SEQUENTIAL          

 OPENING ThreeLayer.rch
 FILE TYPE:RCH   UNIT   19   STATUS:OLD    
 FORMAT:FORMATTED              ACCESS:SEQUENTIAL          

 OPENING ThreeLayer.wel
 FILE TYPE:WEL   UNIT   20   STATUS:OLD    
 FORMAT:FORMATTED              ACCESS:SEQUENTIAL          

 OPENING ThreeLayer.oc
 FILE TYPE:OC   UNIT   14   STATUS:OLD    
 FORMAT:FORMATTED              ACCESS:SEQUENTIAL          

 OPENING ThreeLayer.pcg
 FILE TYPE:PCG   UNIT   27   STATUS:OLD    
 FORMAT:FORMATTED              ACCESS:SEQUENTIAL          

 OPENING ThreeLayer.cbc
 FILE TYPE:DATA(BINARY)   UNIT   53   STATUS:REPLACE
 FORMAT:UNFORMATTED            ACCESS:STREAM              

 OPENING ThreeLayer.hds
 FILE TYPE:DATA(BINARY)   UNIT   51   STATUS:REPLACE
 FORMAT:UNFORMATTED            ACCESS:STREAM              

 BAS -- BASIC PACKAGE, VERSION 7, 5/2/2005 INPUT READ FROM UNIT   13
 
 MODFLOW was compiled using mixed precision
 Precision of REAL variables:           6
 Precision of DOUBLE PRECISION variables:          15

 DISCRETIZATION INPUT DATA READ FROM UNIT   11
 # DIS package for MODFLOW-2005 generated by Flopy 3.10.0
    3 LAYERS        50 ROWS        50 COLUMNS
    1 STRESS PERIOD(S) IN SIMULATION
 MODEL TIME UNIT IS DAYS
 MODEL LENGTH UNIT IS METERS
  Confining bed flag for each layer:
   0   0   0

                     DELR =   100.000    

                     DELC =   100.000    



           TOP ELEVATION OF LAYER 1
 READING ON UNIT   11 WITH FORMAT: (50E15.6)           



             MODEL LAYER BOTTOM EL. FOR LAYER   1
 READING ON UNIT   11 WITH FORMAT: (50E15.6)           



             MODEL LAYER BOTTOM EL. FOR LAYER   2
 READING ON UNIT   11 WITH FORMAT: (50E15.6)           



             MODEL LAYER BOTTOM EL. FOR LAYER   3
 READING ON UNIT   11 WITH FORMAT: (50E15.6)           


 STRESS PERIOD     LENGTH       TIME STEPS     MULTIPLIER FOR DELT    SS FLAG
 ----------------------------------------------------------------------------
        1         1.000000          1                    1.000         SS

 STEADY-STATE SIMULATION



 
 # BAS6 package for MODFLOW-2005 generated by Flopy 3.10.0                       
 THE FREE FORMAT OPTION HAS BEEN SELECTED



                     BOUNDARY ARRAY FOR LAYER   1
 READING ON UNIT   13 WITH FORMAT: (50I10)             



                     BOUNDARY ARRAY FOR LAYER   2
 READING ON UNIT   13 WITH FORMAT: (50I10)             



                     BOUNDARY ARRAY FOR LAYER   3
 READING ON UNIT   13 WITH FORMAT: (50I10)             

 AQUIFER HEAD WILL BE SET TO  -999.99     AT ALL NO-FLOW NODES (IBOUND=0).



                       INITIAL HEAD FOR LAYER   1
 READING ON UNIT   13 WITH FORMAT: (50E15.6)           



                       INITIAL HEAD FOR LAYER   2
 READING ON UNIT   13 WITH FORMAT: (50E15.6)           



                       INITIAL HEAD FOR LAYER   3
 READING ON UNIT   13 WITH FORMAT: (50E15.6)           
 # OC package for MODFLOW-2005 generated by Flopy 3.10.0

 OUTPUT CONTROL IS SPECIFIED ONLY AT TIME STEPS FOR WHICH OUTPUT IS DESIRED
 COMPACT CELL-BY-CELL BUDGET FILES WILL BE WRITTEN
 AUXILIARY DATA WILL BE SAVED IN CELL-BY-CELL BUDGET FILES
 HEAD PRINT FORMAT CODE IS   0    DRAWDOWN PRINT FORMAT CODE IS   0
 HEADS WILL BE SAVED ON UNIT   51    DRAWDOWNS WILL BE SAVED ON UNIT    0

 LPF -- LAYER-PROPERTY FLOW PACKAGE, VERSION 7, 5/2/2005
         INPUT READ FROM UNIT   15
 # LPF package for MODFLOW-2005 generated by Flopy 3.10.0
 CELL-BY-CELL FLOWS WILL BE SAVED ON UNIT   53
 HEAD AT CELLS THAT CONVERT TO DRY= -1.00000E+30
 No named parameters
 STORAGECOEFFICIENT OPTION:
 Read storage coefficient rather than specific storage

   LAYER FLAGS:
 LAYER       LAYTYP        LAYAVG         CHANI        LAYVKA        LAYWET
 ---------------------------------------------------------------------------
    1             1             0     1.000E+00             0             0
    2             1             0     1.000E+00             0             0
    3             1             0     1.000E+00             0             0

   INTERPRETATION OF LAYER FLAGS:
                        INTERBLOCK     HORIZONTAL    DATA IN
         LAYER TYPE   TRANSMISSIVITY   ANISOTROPY   ARRAY VKA   WETTABILITY
 LAYER      (LAYTYP)      (LAYAVG)       (CHANI)      (LAYVKA)      (LAYWET)
 ---------------------------------------------------------------------------
    1   CONVERTIBLE      HARMONIC     1.000E+00    VERTICAL K  NON-WETTABLE
    2   CONVERTIBLE      HARMONIC     1.000E+00    VERTICAL K  NON-WETTABLE
    3   CONVERTIBLE      HARMONIC     1.000E+00    VERTICAL K  NON-WETTABLE

 WETTING CAPABILITY IS NOT ACTIVE IN ANY LAYER



              HYD. COND. ALONG ROWS FOR LAYER   1
 READING ON UNIT   15 WITH FORMAT: (50E15.6)           



                VERTICAL HYD. COND. FOR LAYER   1
 READING ON UNIT   15 WITH FORMAT: (50E15.6)           



              HYD. COND. ALONG ROWS FOR LAYER   2
 READING ON UNIT   15 WITH FORMAT: (50E15.6)           



                VERTICAL HYD. COND. FOR LAYER   2
 READING ON UNIT   15 WITH FORMAT: (50E15.6)           



              HYD. COND. ALONG ROWS FOR LAYER   3
 READING ON UNIT   15 WITH FORMAT: (50E15.6)           



                VERTICAL HYD. COND. FOR LAYER   3
 READING ON UNIT   15 WITH FORMAT: (50E15.6)           

 WEL -- WELL PACKAGE, VERSION 7, 5/2/2005 INPUT READ FROM UNIT   20
 # WEL package for MODFLOW-2005 generated by Flopy 3.10.0
 No named parameters
 MAXIMUM OF      1 ACTIVE WELLS AT ONE TIME


     0 Well parameters

 RCH -- RECHARGE PACKAGE, VERSION 7, 5/2/2005 INPUT READ FROM UNIT   19
 # RCH package for MODFLOW-2005 generated by Flopy 3.10.0
 No named parameters
 OPTION 3 -- RECHARGE TO HIGHEST ACTIVE NODE IN EACH VERTICAL COLUMN
 CELL-BY-CELL FLOWS WILL BE SAVED ON UNIT   53


     0 Recharge parameters

 PCG -- CONJUGATE-GRADIENT SOLUTION PACKAGE, VERSION 7, 5/2/2005
 # PCG package for MODFLOW-2005 generated by Flopy 3.10.0
 MAXIMUM OF     50 CALLS OF SOLUTION ROUTINE
 MAXIMUM OF     30 INTERNAL ITERATIONS PER CALL TO SOLUTION ROUTINE
 MATRIX PRECONDITIONING TYPE :    1



                                    SOLUTION BY THE CONJUGATE-GRADIENT METHOD
                                   -------------------------------------------
                    MAXIMUM NUMBER OF CALLS TO PCG ROUTINE =       50
                        MAXIMUM ITERATIONS PER CALL TO PCG =       30
                               MATRIX PRECONDITIONING TYPE =        1
        RELAXATION FACTOR (ONLY USED WITH PRECOND. TYPE 1) =    0.10000E+01
 PARAMETER OF POLYNOMIAL PRECOND. = 2 (2) OR IS CALCULATED :        0
                         HEAD CHANGE CRITERION FOR CLOSURE =    0.10000E-04
                     RESIDUAL CHANGE CRITERION FOR CLOSURE =    0.10000E-04
            PCG HEAD AND RESIDUAL CHANGE PRINTOUT INTERVAL =      999
     PRINTING FROM SOLVER IS LIMITED(1) OR SUPPRESSED (>1) =        3
                            STEADY-STATE DAMPING PARAMETER =    0.10000E+01
                               TRANSIENT DAMPING PARAMETER =    0.10000E+01
1
                            STRESS PERIOD NO.    1, LENGTH =   1.000000    
                            -----------------------------------------------

                              NUMBER OF TIME STEPS =     1

                               MULTIPLIER FOR DELT =     1.000

                            INITIAL TIME STEP SIZE =   1.000000    

 WELL NO.  LAYER   ROW   COL   STRESS RATE         
 --------------------------------------------------
      1      3     25     25      -500.0    

      1 WELL 



                           RECHARGE
 READING ON UNIT   19 WITH FORMAT: (50E15.6)           
 
 SOLVING FOR HEAD 

 OUTPUT CONTROL FOR STRESS PERIOD    1   TIME STEP    1
    PRINT HEAD FOR ALL LAYERS
    PRINT BUDGET
    SAVE HEAD FOR ALL LAYERS
    SAVE BUDGET
 UBDSV2 SAVING "   CONSTANT HEAD" ON UNIT  53 AT TIME STEP  1, STRESS PERIOD   1
 UBDSV1 SAVING "FLOW RIGHT FACE " ON UNIT  53 AT TIME STEP  1, STRESS PERIOD   1
 UBDSV1 SAVING "FLOW FRONT FACE " ON UNIT  53 AT TIME STEP  1, STRESS PERIOD   1
 UBDSV1 SAVING "FLOW LOWER FACE " ON UNIT  53 AT TIME STEP  1, STRESS PERIOD   1
 UBDSV3 SAVING "        RECHARGE" ON UNIT  53 AT TIME STEP  1, STRESS PERIOD   1
1
              HEAD IN LAYER   1 AT END OF TIME STEP   1 IN STRESS PERIOD    1
  ---------------------------------------------------------------------------

            1           2           3           4           5           6           7           8           9          10
           11          12          13          14          15          16          17          18          19          20
           21          22          23          24          25          26          27          28          29          30
           31          32          33          34          35          36          37          38          39          40
           41          42          43          44          45          46          47          48          49          50
 ........................................................................................................................
   1    85.00       84.92       84.84       84.74       84.62       84.50       84.37       84.22       84.07       83.90    
        83.73       83.54       83.35       83.15       82.94       82.72       82.50       82.26       82.02       81.78    
        81.52       81.26       80.99       80.72       80.44       80.15       79.85       79.55       79.23       78.92    
        78.59       78.25       77.91       77.56       77.19       76.82       76.43       76.04       75.63       75.20    
        74.77       74.32       73.85       73.36       72.86       72.33       71.79       71.22       70.62       70.00    
   2    85.00       84.92       84.84       84.74       84.62       84.50       84.37       84.22       84.06       83.90    
        83.72       83.54       83.35       83.15       82.94       82.72       82.49       82.26       82.02       81.77    
        81.52       81.26       80.99       80.71       80.43       80.14       79.85       79.54       79.23       78.91    
        78.59       78.25       77.91       77.55       77.19       76.82       76.43       76.03       75.63       75.20    
        74.77       74.31       73.85       73.36       72.86       72.33       71.79       71.22       70.62       70.00    
   3    85.00       84.92       84.84       84.74       84.62       84.50       84.36       84.22       84.06       83.90    
        83.72       83.54       83.34       83.14       82.93       82.72       82.49       82.26       82.02       81.77    
        81.51       81.25       80.98       80.71       80.43       80.14       79.84       79.54       79.23       78.91    
        78.58       78.25       77.90       77.55       77.19       76.81       76.43       76.03       75.62       75.20    
        74.76       74.31       73.85       73.36       72.86       72.33       71.79       71.22       70.62       70.00    
   4    85.00       84.92       84.84       84.73       84.62       84.50       84.36       84.22       84.06       83.89    
        83.72       83.53       83.34       83.14       82.93       82.71       82.48       82.25       82.01       81.76    
        81.51       81.25       80.98       80.70       80.42       80.13       79.83       79.53       79.22       78.90    
        78.57       78.24       77.90       77.54       77.18       76.81       76.42       76.03       75.62       75.20    
        74.76       74.31       73.84       73.36       72.85       72.33       71.79       71.22       70.62       70.00    
   5    85.00       84.92       84.83       84.73       84.62       84.49       84.36       84.21       84.06       83.89    
        83.71       83.53       83.33       83.13       82.92       82.70       82.48       82.24       82.00       81.75    
        81.50       81.23       80.97       80.69       80.41       80.12       79.82       79.52       79.21       78.89    
        78.56       78.23       77.89       77.53       77.17       76.80       76.41       76.02       75.61       75.19    
        74.76       74.31       73.84       73.35       72.85       72.33       71.78       71.22       70.62       70.00    
   6    85.00       84.92       84.83       84.73       84.62       84.49       84.36       84.21       84.05       83.88    
        83.71       83.52       83.33       83.12       82.91       82.69       82.47       82.23       81.99       81.74    
        81.48       81.22       80.95       80.68       80.39       80.10       79.81       79.51       79.20       78.88    
        78.55       78.22       77.87       77.52       77.16       76.79       76.41       76.01       75.60       75.18    
        74.75       74.30       73.83       73.35       72.85       72.33       71.78       71.21       70.62       70.00    
   7    85.00       84.92       84.83       84.73       84.61       84.49       84.35       84.20       84.05       83.88    
        83.70       83.51       83.32       83.11       82.90       82.68       82.45       82.22       81.98       81.73    
        81.47       81.21       80.94       80.66       80.38       80.09       79.79       79.49       79.18       78.86    
        78.54       78.20       77.86       77.51       77.15       76.78       76.40       76.00       75.60       75.18    
        74.74       74.29       73.83       73.35       72.84       72.32       71.78       71.21       70.62       70.00    
   8    85.00       84.92       84.83       84.73       84.61       84.48       84.35       84.20       84.04       83.87    
        83.69       83.50       83.31       83.10       82.89       82.67       82.44       82.20       81.96       81.71    
        81.45       81.19       80.92       80.64       80.36       80.07       79.77       79.47       79.16       78.84    
        78.52       78.19       77.85       77.50       77.14       76.77       76.38       75.99       75.59       75.17    
        74.73       74.29       73.82       73.34       72.84       72.32       71.78       71.21       70.62       70.00    
   9    85.00       84.92       84.83       84.72       84.61       84.48       84.34       84.19       84.03       83.86    
        83.68       83.49       83.30       83.09       82.88       82.65       82.42       82.19       81.94       81.69    
        81.43       81.17       80.90       80.62       80.34       80.05       79.75       79.45       79.14       78.82    
        78.50       78.17       77.83       77.48       77.12       76.75       76.37       75.98       75.57       75.16    
        74.73       74.28       73.81       73.33       72.83       72.32       71.77       71.21       70.62       70.00    
  10    85.00       84.92       84.83       84.72       84.60       84.48       84.34       84.18       84.02       83.85    
        83.67       83.48       83.28       83.08       82.86       82.64       82.41       82.17       81.92       81.67    
        81.41       81.15       80.87       80.60       80.31       80.02       79.73       79.43       79.12       78.80    
        78.48       78.15       77.81       77.46       77.10       76.73       76.36       75.97       75.56       75.15    
        74.72       74.27       73.81       73.33       72.83       72.31       71.77       71.21       70.62       70.00    
  11    85.00       84.92       84.83       84.72       84.60       84.47       84.33       84.18       84.02       83.84    
        83.66       83.47       83.27       83.06       82.84       82.62       82.39       82.15       81.90       81.65    
        81.39       81.12       80.85       80.57       80.29       80.00       79.70       79.40       79.09       78.78    
        78.46       78.13       77.79       77.44       77.08       76.72       76.34       75.95       75.55       75.13    
        74.70       74.26       73.80       73.32       72.82       72.31       71.77       71.20       70.62       70.00    
  12    85.00       84.92       84.82       84.72       84.60       84.47       84.32       84.17       84.01       83.83    
        83.65       83.46       83.26       83.05       82.83       82.60       82.37       82.13       81.88       81.62    
        81.36       81.09       80.82       80.54       80.26       79.97       79.67       79.37       79.07       78.75    
        78.43       78.10       77.77       77.42       77.07       76.70       76.32       75.94       75.54       75.12    
        74.69       74.25       73.79       73.31       72.82       72.30       71.76       71.20       70.61       70.00    
  13    85.00       84.92       84.82       84.71       84.59       84.46       84.32       84.16       84.00       83.82    
        83.64       83.44       83.24       83.03       82.81       82.58       82.35       82.10       81.85       81.60    
        81.33       81.07       80.79       80.51       80.23       79.94       79.64       79.34       79.04       78.72    
        78.40       78.08       77.74       77.40       77.04       76.68       76.31       75.92       75.52       75.11    
        74.68       74.24       73.78       73.31       72.81       72.30       71.76       71.20       70.61       70.00    
  14    85.00       84.92       84.82       84.71       84.59       84.45       84.31       84.15       83.99       83.81    
        83.63       83.43       83.23       83.01       82.79       82.56       82.32       82.08       81.83       81.57    
        81.31       81.04       80.76       80.48       80.20       79.91       79.61       79.31       79.01       78.70    
        78.38       78.05       77.72       77.38       77.02       76.66       76.29       75.90       75.51       75.10    
        74.67       74.23       73.77       73.30       72.81       72.29       71.76       71.20       70.61       70.00    
  15    85.00       84.91       84.82       84.71       84.58       84.45       84.30       84.15       83.98       83.80    
        83.62       83.42       83.21       83.00       82.77       82.54       82.30       82.05       81.80       81.54    
        81.28       81.00       80.73       80.45       80.16       79.87       79.58       79.28       78.98       78.67    
        78.35       78.02       77.69       77.35       77.00       76.64       76.27       75.89       75.49       75.08    
        74.66       74.22       73.76       73.29       72.80       72.29       71.75       71.19       70.61       70.00    
  16    85.00       84.91       84.81       84.70       84.58       84.44       84.30       84.14       83.97       83.79    
        83.60       83.40       83.20       82.98       82.75       82.52       82.28       82.03       81.77       81.51    
        81.24       80.97       80.69       80.41       80.13       79.84       79.54       79.25       78.94       78.63    
        78.32       78.00       77.67       77.33       76.98       76.62       76.25       75.87       75.48       75.07    
        74.65       74.21       73.76       73.28       72.79       72.28       71.75       71.19       70.61       70.00    
  17    85.00       84.91       84.81       84.70       84.58       84.44       84.29       84.13       83.96       83.78    
        83.59       83.39       83.18       82.96       82.74       82.50       82.26       82.01       81.75       81.48    
        81.21       80.94       80.66       80.38       80.09       79.80       79.51       79.21       78.91       78.60    
        78.29       77.97       77.64       77.31       76.96       76.60       76.24       75.86       75.46       75.06    
        74.64       74.20       73.75       73.28       72.79       72.28       71.75       71.19       70.61       70.00    
  18    85.00       84.91       84.81       84.70       84.57       84.43       84.29       84.13       83.95       83.77    
        83.58       83.38       83.17       82.95       82.72       82.48       82.23       81.98       81.72       81.45    
        81.18       80.91       80.62       80.34       80.05       79.76       79.47       79.18       78.88       78.57    
        78.26       77.94       77.62       77.28       76.94       76.59       76.22       75.84       75.45       75.05    
        74.63       74.19       73.74       73.27       72.78       72.27       71.74       71.19       70.61       70.00    
  19    85.00       84.91       84.81       84.70       84.57       84.43       84.28       84.12       83.95       83.76    
        83.57       83.37       83.16       82.93       82.70       82.46       82.21       81.96       81.69       81.43    
        81.15       80.87       80.59       80.30       80.02       79.73       79.44       79.14       78.85       78.54    
        78.23       77.92       77.60       77.26       76.92       76.57       76.20       75.83       75.44       75.04    
        74.62       74.18       73.73       73.26       72.78       72.27       71.74       71.19       70.61       70.00    
  20    85.00       84.91       84.81       84.69       84.57       84.43       84.28       84.11       83.94       83.76    
        83.56       83.36       83.14       82.92       82.69       82.44       82.19       81.94       81.67       81.40    
        81.12       80.84       80.56       80.27       79.98       79.69       79.40       79.11       78.81       78.51    
        78.21       77.90       77.57       77.24       76.90       76.55       76.19       75.82       75.43       75.03    
        74.61       74.18       73.73       73.26       72.77       72.27       71.74       71.18       70.61       70.00    
  21    85.00       84.91       84.81       84.69       84.56       84.42       84.27       84.11       83.93       83.75    
        83.55       83.35       83.13       82.91       82.67       82.43       82.18       81.92       81.65       81.38    
        81.10       80.81       80.52       80.24       79.95       79.66       79.37       79.08       78.79       78.49    
        78.19       77.87       77.56       77.23       76.89       76.54       76.18       75.81       75.42       75.02    
        74.60       74.17       73.72       73.26       72.77       72.26       71.73       71.18       70.61       70.00    
  22    85.00       84.91       84.81       84.69       84.56       84.42       84.27       84.11       83.93       83.74    
        83.55       83.34       83.13       82.90       82.66       82.42       82.16       81.90       81.63       81.36    
        81.07       80.79       80.50       80.20       79.91       79.63       79.34       79.05       78.76       78.47    
        78.17       77.86       77.54       77.21       76.88       76.53       76.17       75.80       75.41       75.01    
        74.60       74.17       73.72       73.25       72.77       72.26       71.73       71.18       70.60       70.00    
  23    85.00       84.91       84.81       84.69       84.56       84.42       84.27       84.10       83.93       83.74    
        83.54       83.34       83.12       82.89       82.66       82.41       82.15       81.89       81.62       81.34    
        81.05       80.76       80.47       80.18       79.89       79.60       79.32       79.03       78.74       78.45    
        78.15       77.85       77.53       77.20       76.87       76.52       76.16       75.79       75.41       75.01    
        74.59       74.16       73.71       73.25       72.76       72.26       71.73       71.18       70.60       70.00    
  24    85.00       84.91       84.81       84.69       84.56       84.42       84.27       84.10       83.93       83.74    
        83.54       83.33       83.12       82.89       82.65       82.40       82.15       81.88       81.61       81.33    
        81.04       80.75       80.46       80.16       79.86       79.58       79.30       79.02       78.73       78.44    
        78.14       77.84       77.52       77.20       76.86       76.52       76.16       75.79       75.40       75.01    
        74.59       74.16       73.71       73.25       72.76       72.26       71.73       71.18       70.60       70.00    
  25    85.00       84.91       84.80       84.69       84.56       84.42       84.27       84.10       83.93       83.74    
        83.54       83.33       83.12       82.89       82.65       82.40       82.15       81.88       81.61       81.33    
        81.04       80.75       80.45       80.15       79.85       79.57       79.29       79.01       78.73       78.44    
        78.14       77.84       77.52       77.20       76.86       76.52       76.16       75.79       75.40       75.00    
        74.59       74.16       73.71       73.25       72.76       72.26       71.73       71.18       70.60       70.00    
  26    85.00       84.91       84.81       84.69       84.56       84.42       84.27       84.10       83.93       83.74    
        83.54       83.34       83.12       82.89       82.65       82.41       82.15       81.88       81.61       81.33    
        81.04       80.75       80.46       80.16       79.87       79.58       79.30       79.02       78.73       78.44    
        78.14       77.84       77.52       77.20       76.87       76.52       76.16       75.79       75.41       75.01    
        74.59       74.16       73.71       73.25       72.76       72.26       71.73       71.18       70.60       70.00    
  27    85.00       84.91       84.81       84.69       84.56       84.42       84.27       84.10       83.93       83.74    
        83.55       83.34       83.12       82.89       82.66       82.41       82.16       81.89       81.62       81.34    
        81.06       80.77       80.47       80.18       79.89       79.60       79.32       79.03       78.75       78.45    
        78.16       77.85       77.53       77.21       76.87       76.53       76.17       75.79       75.41       75.01    
        74.60       74.16       73.72       73.25       72.77       72.26       71.73       71.18       70.60       70.00    
  28    85.00       84.91       84.81       84.69       84.56       84.42       84.27       84.11       83.93       83.75    
        83.55       83.35       83.13       82.90       82.67       82.42       82.17       81.91       81.64       81.36    
        81.08       80.79       80.50       80.21       79.92       79.63       79.34       79.06       78.77       78.47    
        78.17       77.86       77.55       77.22       76.88       76.53       76.17       75.80       75.42       75.02    
        74.60       74.17       73.72       73.25       72.77       72.26       71.73       71.18       70.60       70.00    
  29    85.00       84.91       84.81       84.69       84.56       84.43       84.27       84.11       83.94       83.75    
        83.56       83.35       83.14       82.91       82.68       82.44       82.18       81.92       81.66       81.38    
        81.10       80.82       80.53       80.24       79.95       79.66       79.38       79.09       78.79       78.50    
        78.19       77.88       77.56       77.23       76.90       76.55       76.18       75.81       75.42       75.02    
        74.61       74.17       73.73       73.26       72.77       72.26       71.74       71.18       70.61       70.00    
  30    85.00       84.91       84.81       84.69       84.57       84.43       84.28       84.12       83.94       83.76    
        83.57       83.36       83.15       82.93       82.69       82.45       82.20       81.94       81.68       81.41    
        81.13       80.85       80.56       80.28       79.99       79.70       79.41       79.12       78.82       78.52    
        78.22       77.90       77.58       77.25       76.91       76.56       76.20       75.82       75.43       75.03    
        74.61       74.18       73.73       73.26       72.78       72.27       71.74       71.19       70.61       70.00    
  31    85.00       84.91       84.81       84.70       84.57       84.43       84.28       84.12       83.95       83.77    
        83.58       83.37       83.16       82.94       82.71       82.47       82.22       81.97       81.70       81.44    
        81.16       80.88       80.60       80.31       80.03       79.74       79.45       79.15       78.86       78.55    
        78.24       77.93       77.61       77.27       76.93       76.58       76.21       75.84       75.45       75.04    
        74.62       74.19       73.74       73.27       72.78       72.27       71.74       71.19       70.61       70.00    
  32    85.00       84.91       84.81       84.70       84.57       84.44       84.29       84.13       83.96       83.78    
        83.59       83.39       83.18       82.96       82.73       82.49       82.24       81.99       81.73       81.47    
        81.19       80.92       80.64       80.35       80.07       79.78       79.48       79.19       78.89       78.58    
        78.27       77.96       77.63       77.29       76.95       76.60       76.23       75.85       75.46       75.05    
        74.63       74.20       73.75       73.28       72.79       72.28       71.74       71.19       70.61       70.00    
  33    85.00       84.91       84.81       84.70       84.58       84.44       84.30       84.14       83.97       83.79    
        83.60       83.40       83.19       82.97       82.75       82.51       82.27       82.02       81.76       81.50    
        81.23       80.95       80.67       80.39       80.11       79.82       79.52       79.23       78.92       78.62    
        78.30       77.98       77.66       77.32       76.97       76.62       76.25       75.87       75.47       75.07    
        74.65       74.21       73.75       73.28       72.79       72.28       71.75       71.19       70.61       70.00    
  34    85.00       84.91       84.82       84.71       84.58       84.45       84.30       84.15       83.98       83.80    
        83.61       83.41       83.21       82.99       82.77       82.53       82.29       82.04       81.79       81.53    
        81.26       80.99       80.71       80.43       80.14       79.85       79.56       79.26       78.96       78.65    
        78.33       78.01       77.68       77.34       76.99       76.64       76.27       75.88       75.49       75.08    
        74.66       74.22       73.76       73.29       72.80       72.29       71.75       71.19       70.61       70.00    
  35    85.00       84.92       84.82       84.71       84.59       84.45       84.31       84.15       83.99       83.81    
        83.62       83.43       83.22       83.01       82.79       82.55       82.32       82.07       81.82       81.56    
        81.29       81.02       80.75       80.47       80.18       79.89       79.60       79.30       78.99       78.68    
        78.37       78.04       77.71       77.37       77.02       76.66       76.29       75.90       75.50       75.09    
        74.67       74.23       73.77       73.30       72.81       72.29       71.76       71.20       70.61       70.00    
  36    85.00       84.92       84.82       84.71       84.59       84.46       84.32       84.16       84.00       83.82    
        83.64       83.44       83.24       83.03       82.81       82.58       82.34       82.10       81.84       81.59    
        81.32       81.05       80.78       80.50       80.22       79.93       79.63       79.33       79.03       78.71    
        78.40       78.07       77.74       77.39       77.04       76.68       76.30       75.92       75.52       75.11    
        74.68       74.24       73.78       73.31       72.81       72.30       71.76       71.20       70.61       70.00    
  37    85.00       84.92       84.82       84.72       84.60       84.47       84.32       84.17       84.01       83.83    
        83.65       83.46       83.26       83.05       82.83       82.60       82.36       82.12       81.87       81.62    
        81.35       81.09       80.81       80.53       80.25       79.96       79.67       79.37       79.06       78.75    
        78.43       78.10       77.76       77.42       77.06       76.70       76.32       75.94       75.54       75.12    
        74.70       74.25       73.79       73.32       72.82       72.30       71.76       71.20       70.62       70.00    
  38    85.00       84.92       84.83       84.72       84.60       84.47       84.33       84.18       84.02       83.85    
        83.66       83.47       83.27       83.06       82.85       82.62       82.39       82.15       81.90       81.64    
        81.38       81.12       80.84       80.57       80.28       79.99       79.70       79.40       79.09       78.78    
        78.45       78.12       77.79       77.44       77.09       76.72       76.34       75.95       75.55       75.14    
        74.71       74.26       73.80       73.32       72.83       72.31       71.77       71.21       70.62       70.00    
  39    85.00       84.92       84.83       84.72       84.61       84.48       84.34       84.19       84.03       83.86    
        83.68       83.49       83.29       83.08       82.86       82.64       82.41       82.17       81.92       81.67    
        81.41       81.15       80.87       80.60       80.31       80.02       79.73       79.43       79.12       78.80    
        78.48       78.15       77.81       77.46       77.11       76.74       76.36       75.97       75.57       75.15    
        74.72       74.27       73.81       73.33       72.83       72.31       71.77       71.21       70.62       70.00    
  40    85.00       84.92       84.83       84.73       84.61       84.48       84.35       84.20       84.04       83.87    
        83.69       83.50       83.30       83.10       82.88       82.66       82.43       82.19       81.95       81.70    
        81.44       81.17       80.90       80.62       80.34       80.05       79.76       79.45       79.15       78.83    
        78.51       78.17       77.83       77.49       77.13       76.76       76.38       75.99       75.58       75.16    
        74.73       74.28       73.82       73.34       72.84       72.32       71.78       71.21       70.62       70.00    
  41    85.00       84.92       84.83       84.73       84.61       84.49       84.35       84.20       84.05       83.88    
        83.70       83.51       83.32       83.11       82.90       82.68       82.45       82.21       81.97       81.72    
        81.46       81.20       80.93       80.65       80.37       80.08       79.78       79.48       79.17       78.85    
        78.53       78.20       77.86       77.51       77.15       76.78       76.39       76.00       75.60       75.18    
        74.74       74.29       73.83       73.35       72.85       72.32       71.78       71.21       70.62       70.00    
  42    85.00       84.92       84.83       84.73       84.62       84.49       84.36       84.21       84.05       83.89    
        83.71       83.52       83.33       83.13       82.91       82.69       82.47       82.23       81.99       81.74    
        81.48       81.22       80.95       80.67       80.39       80.10       79.81       79.50       79.19       78.88    
        78.55       78.22       77.88       77.52       77.16       76.79       76.41       76.01       75.61       75.19    
        74.75       74.30       73.84       73.35       72.85       72.33       71.78       71.22       70.62       70.00    
  43    85.00       84.92       84.84       84.74       84.62       84.50       84.36       84.22       84.06       83.89    
        83.72       83.53       83.34       83.14       82.93       82.71       82.48       82.25       82.01       81.76    
        81.50       81.24       80.97       80.69       80.41       80.12       79.83       79.52       79.21       78.90    
        78.57       78.24       77.89       77.54       77.18       76.81       76.42       76.03       75.62       75.20    
        74.76       74.31       73.84       73.36       72.86       72.33       71.79       71.22       70.62       70.00    
  44    85.00       84.93       84.84       84.74       84.63       84.50       84.37       84.22       84.07       83.90    
        83.73       83.54       83.35       83.15       82.94       82.72       82.50       82.26       82.02       81.77    
        81.52       81.26       80.99       80.71       80.43       80.14       79.85       79.54       79.23       78.91    
        78.59       78.25       77.91       77.56       77.19       76.82       76.43       76.04       75.63       75.21    
        74.77       74.32       73.85       73.37       72.86       72.34       71.79       71.22       70.62       70.00    
  45    85.00       84.93       84.84       84.74       84.63       84.51       84.37       84.23       84.07       83.91    
        83.73       83.55       83.36       83.16       82.95       82.73       82.51       82.28       82.04       81.79    
        81.53       81.27       81.00       80.73       80.45       80.16       79.86       79.56       79.25       78.93    
        78.60       78.27       77.92       77.57       77.20       76.83       76.45       76.05       75.64       75.22    
        74.78       74.33       73.86       73.37       72.87       72.34       71.79       71.22       70.62       70.00    
  46    85.00       84.93       84.84       84.74       84.63       84.51       84.38       84.23       84.08       83.91    
        83.74       83.56       83.37       83.17       82.96       82.74       82.52       82.29       82.05       81.80    
        81.55       81.29       81.02       80.74       80.46       80.17       79.88       79.57       79.26       78.94    
        78.61       78.28       77.93       77.58       77.21       76.84       76.45       76.06       75.65       75.22    
        74.78       74.33       73.86       73.37       72.87       72.34       71.79       71.22       70.63       70.00    
  47    85.00       84.93       84.84       84.74       84.63       84.51       84.38       84.24       84.08       83.92    
        83.75       83.56       83.37       83.17       82.97       82.75       82.53       82.29       82.06       81.81    
        81.56       81.30       81.03       80.75       80.47       80.18       79.89       79.58       79.27       78.95    
        78.62       78.29       77.94       77.59       77.22       76.85       76.46       76.06       75.65       75.23    
        74.79       74.34       73.87       73.38       72.87       72.34       71.80       71.22       70.63       70.00    
  48    85.00       84.93       84.84       84.74       84.63       84.51       84.38       84.24       84.08       83.92    
        83.75       83.57       83.38       83.18       82.97       82.76       82.53       82.30       82.06       81.82    
        81.56       81.30       81.04       80.76       80.48       80.19       79.89       79.59       79.28       78.96    
        78.63       78.29       77.95       77.59       77.23       76.85       76.47       76.07       75.66       75.23    
        74.79       74.34       73.87       73.38       72.87       72.35       71.80       71.23       70.63       70.00    
  49    85.00       84.93       84.84       84.74       84.63       84.51       84.38       84.24       84.09       83.92    
        83.75       83.57       83.38       83.18       82.98       82.76       82.54       82.31       82.07       81.82    
        81.57       81.31       81.04       80.77       80.48       80.20       79.90       79.60       79.28       78.96    
        78.64       78.30       77.95       77.60       77.23       76.86       76.47       76.07       75.66       75.24    
        74.80       74.34       73.87       73.38       72.88       72.35       71.80       71.23       70.63       70.00    
  50    85.00       84.93       84.84       84.74       84.64       84.51       84.38       84.24       84.09       83.93    
        83.75       83.57       83.38       83.18       82.98       82.76       82.54       82.31       82.07       81.82    
        81.57       81.31       81.04       80.77       80.49       80.20       79.90       79.60       79.29       78.97    
        78.64       78.30       77.96       77.60       77.24       76.86       76.47       76.07       75.66       75.24    
        74.80       74.34       73.87       73.38       72.88       72.35       71.80       71.23       70.63       70.00    
1
              HEAD IN LAYER   2 AT END OF TIME STEP   1 IN STRESS PERIOD    1
  ---------------------------------------------------------------------------

            1           2           3           4           5           6           7           8           9          10
           11          12          13          14          15          16          17          18          19          20
           21          22          23          24          25          26          27          28          29          30
           31          32          33          34          35          36          37          38          39          40
           41          42          43          44          45          46          47          48          49          50
 ........................................................................................................................
   1    85.00       84.83       84.65       84.47       84.28       84.08       83.88       83.67       83.45       83.23    
        83.00       82.77       82.53       82.28       82.03       81.78       81.52       81.25       80.99       80.71    
        80.44       80.16       79.87       79.58       79.29       79.00       78.70       78.40       78.09       77.78    
        77.47       77.15       76.82       76.49       76.16       75.81       75.46       75.10       74.73       74.36    
        73.97       73.58       73.17       72.76       72.33       71.89       71.44       70.97       70.49       70.00    
   2    85.00       84.83       84.65       84.47       84.28       84.08       83.88       83.67       83.45       83.23    
        83.00       82.77       82.53       82.28       82.03       81.77       81.51       81.25       80.98       80.71    
        80.43       80.15       79.86       79.58       79.29       78.99       78.69       78.39       78.09       77.78    
        77.46       77.14       76.82       76.49       76.15       75.81       75.46       75.10       74.73       74.36    
        73.97       73.58       73.17       72.75       72.33       71.89       71.44       70.97       70.49       70.00    
   3    85.00       84.83       84.65       84.47       84.28       84.08       83.87       83.66       83.45       83.22    
        82.99       82.76       82.52       82.27       82.02       81.76       81.50       81.24       80.97       80.69    
        80.42       80.13       79.85       79.56       79.27       78.98       78.68       78.38       78.07       77.76    
        77.45       77.13       76.81       76.48       76.14       75.80       75.45       75.09       74.72       74.35    
        73.96       73.57       73.17       72.75       72.32       71.89       71.43       70.97       70.49       70.00    
   4    85.00       84.83       84.65       84.46       84.27       84.07       83.87       83.66       83.44       83.21    
        82.98       82.75       82.51       82.26       82.01       81.75       81.48       81.22       80.95       80.67    
        80.39       80.11       79.83       79.54       79.25       78.95       78.66       78.36       78.05       77.74    
        77.43       77.11       76.79       76.46       76.13       75.79       75.44       75.08       74.71       74.34    
        73.96       73.56       73.16       72.75       72.32       71.88       71.43       70.97       70.49       70.00    
   5    85.00       84.83       84.65       84.46       84.27       84.07       83.86       83.65       83.43       83.20    
        82.97       82.73       82.49       82.24       81.99       81.73       81.46       81.19       80.92       80.65    
        80.37       80.08       79.80       79.51       79.22       78.92       78.63       78.33       78.02       77.72    
        77.40       77.09       76.77       76.44       76.11       75.77       75.42       75.06       74.70       74.33    
        73.95       73.55       73.15       72.74       72.31       71.88       71.43       70.97       70.49       70.00    
   6    85.00       84.83       84.64       84.46       84.26       84.06       83.85       83.64       83.42       83.19    
        82.96       82.72       82.47       82.22       81.96       81.70       81.43       81.16       80.89       80.61    
        80.33       80.05       79.76       79.47       79.18       78.89       78.59       78.29       77.99       77.68    
        77.37       77.06       76.74       76.41       76.08       75.74       75.40       75.05       74.68       74.31    
        73.93       73.54       73.14       72.73       72.31       71.87       71.42       70.96       70.49       70.00    
   7    85.00       84.82       84.64       84.45       84.26       84.05       83.84       83.63       83.40       83.17    
        82.94       82.69       82.45       82.19       81.93       81.67       81.40       81.13       80.85       80.57    
        80.29       80.00       79.71       79.42       79.13       78.84       78.54       78.24       77.94       77.64    
        77.33       77.02       76.70       76.38       76.05       75.72       75.37       75.02       74.66       74.30    
        73.92       73.53       73.13       72.72       72.30       71.87       71.42       70.96       70.49       70.00    
   8    85.00       84.82       84.64       84.45       84.25       84.04       83.83       83.61       83.39       83.15    
        82.92       82.67       82.42       82.16       81.90       81.63       81.36       81.08       80.80       80.52    
        80.23       79.95       79.66       79.37       79.07       78.78       78.49       78.19       77.89       77.59    
        77.28       76.98       76.66       76.34       76.02       75.68       75.35       75.00       74.64       74.28    
        73.90       73.51       73.12       72.71       72.29       71.86       71.41       70.96       70.49       70.00    
   9    85.00       84.82       84.63       84.44       84.24       84.03       83.82       83.60       83.37       83.13    
        82.89       82.64       82.39       82.13       81.86       81.59       81.31       81.03       80.75       80.46    
        80.17       79.88       79.59       79.30       79.01       78.71       78.42       78.13       77.83       77.53    
        77.23       76.92       76.61       76.30       75.98       75.65       75.31       74.97       74.61       74.25    
        73.88       73.50       73.10       72.70       72.28       71.85       71.41       70.95       70.48       70.00    
  10    85.00       84.82       84.63       84.43       84.23       84.02       83.80       83.58       83.35       83.11    
        82.86       82.61       82.35       82.09       81.82       81.54       81.26       80.97       80.69       80.40    
        80.10       79.81       79.52       79.22       78.93       78.64       78.35       78.05       77.76       77.46    
        77.17       76.86       76.56       76.25       75.93       75.61       75.28       74.94       74.59       74.23    
        73.86       73.48       73.09       72.68       72.27       71.84       71.40       70.95       70.48       70.00    
  11    85.00       84.82       84.62       84.43       84.22       84.01       83.79       83.56       83.33       83.08    
        82.83       82.58       82.31       82.04       81.77       81.49       81.20       80.91       80.62       80.32    
        80.02       79.73       79.43       79.13       78.84       78.55       78.26       77.97       77.68       77.39    
        77.09       76.80       76.50       76.19       75.88       75.56       75.24       74.90       74.55       74.20    
        73.83       73.46       73.07       72.67       72.26       71.83       71.40       70.94       70.48       70.00    
  12    85.00       84.81       84.62       84.42       84.21       83.99       83.77       83.54       83.30       83.06    
        82.80       82.54       82.27       82.00       81.71       81.43       81.13       80.84       80.54       80.23    
        79.93       79.63       79.33       79.03       78.74       78.45       78.16       77.87       77.59       77.30    
        77.01       76.72       76.43       76.13       75.83       75.51       75.19       74.86       74.52       74.17    
        73.81       73.43       73.05       72.65       72.24       71.82       71.39       70.94       70.48       70.00    
  13    85.00       84.81       84.61       84.41       84.20       83.98       83.75       83.52       83.28       83.03    
        82.77       82.50       82.23       81.94       81.66       81.36       81.06       80.76       80.45       80.14    
        79.83       79.52       79.22       78.92       78.62       78.33       78.04       77.76       77.48       77.20    
        76.92       76.64       76.36       76.07       75.77       75.46       75.14       74.82       74.48       74.14    
        73.78       73.41       73.03       72.64       72.23       71.81       71.38       70.93       70.47       70.00    
  14    85.00       84.81       84.61       84.40       84.19       83.97       83.74       83.50       83.25       83.00    
        82.73       82.46       82.18       81.89       81.59       81.29       80.98       80.67       80.35       80.03    
        79.71       79.40       79.09       78.78       78.48       78.19       77.91       77.64       77.36       77.09    
        76.82       76.55       76.28       75.99       75.70       75.40       75.10       74.78       74.45       74.11    
        73.75       73.39       73.01       72.62       72.22       71.80       71.37       70.93       70.47       70.00    
  15    85.00       84.81       84.60       84.39       84.18       83.95       83.72       83.48       83.22       82.96    
        82.69       82.42       82.13       81.83       81.53       81.22       80.90       80.57       80.24       79.91    
        79.58       79.26       78.94       78.63       78.33       78.04       77.76       77.49       77.23       76.97    
        76.72       76.45       76.19       75.92       75.64       75.34       75.04       74.73       74.41       74.07    
        73.72       73.36       72.99       72.60       72.20       71.79       71.36       70.92       70.47       70.00    
  16    85.00       84.80       84.60       84.39       84.17       83.94       83.70       83.45       83.20       82.93    
        82.66       82.37       82.08       81.77       81.46       81.14       80.80       80.47       80.12       79.78    
        79.44       79.10       78.77       78.45       78.15       77.86       77.59       77.33       77.09       76.84    
        76.60       76.35       76.10       75.84       75.56       75.28       74.99       74.69       74.37       74.04    
        73.70       73.34       72.97       72.59       72.19       71.78       71.36       70.92       70.47       70.00    
  17    85.00       84.80       84.59       84.38       84.15       83.92       83.68       83.43       83.17       82.90    
        82.62       82.33       82.03       81.71       81.39       81.05       80.71       80.36       80.00       79.63    
        79.27       78.92       78.57       78.24       77.94       77.66       77.40       77.15       76.92       76.69    
        76.47       76.24       76.00       75.75       75.49       75.22       74.94       74.64       74.33       74.01    
        73.67       73.32       72.95       72.57       72.18       71.77       71.35       70.91       70.46       70.00    
  18    85.00       84.80       84.59       84.37       84.14       83.91       83.67       83.41       83.15       82.87    
        82.59       82.29       81.98       81.65       81.32       80.97       80.61       80.24       79.86       79.47    
        79.09       78.71       78.35       78.00       77.69       77.42       77.17       76.95       76.74       76.53    
        76.33       76.12       75.90       75.67       75.42       75.16       74.89       74.60       74.29       73.97    
        73.64       73.29       72.93       72.56       72.17       71.76       71.34       70.91       70.46       70.00    
  19    85.00       84.80       84.58       84.36       84.13       83.90       83.65       83.39       83.12       82.84    
        82.55       82.25       81.93       81.60       81.25       80.89       80.51       80.12       79.71       79.30    
        78.89       78.48       78.08       77.72       77.40       77.13       76.91       76.71       76.53       76.36    
        76.18       76.00       75.80       75.58       75.35       75.10       74.84       74.55       74.26       73.94    
        73.62       73.27       72.92       72.54       72.15       71.75       71.34       70.91       70.46       70.00    
  20    85.00       84.79       84.58       84.36       84.13       83.89       83.64       83.37       83.10       82.82    
        82.52       82.21       81.88       81.54       81.18       80.81       80.41       80.00       79.57       79.12    
        78.67       78.21       77.77       77.38       77.04       76.79       76.60       76.45       76.31       76.18    
        76.03       75.87       75.70       75.50       75.28       75.04       74.79       74.52       74.23       73.92    
        73.59       73.25       72.90       72.53       72.14       71.75       71.33       70.90       70.46       70.00    
  21    85.00       84.79       84.58       84.35       84.12       83.88       83.62       83.36       83.08       82.80    
        82.49       82.18       81.84       81.49       81.12       80.73       80.32       79.88       79.42       78.94    
        78.43       77.91       77.41       76.95       76.59       76.36       76.23       76.15       76.08       75.99    
        75.89       75.76       75.60       75.42       75.22       75.00       74.75       74.48       74.20       73.89    
        73.57       73.24       72.89       72.52       72.14       71.74       71.33       70.90       70.46       70.00    
  22    85.00       84.79       84.57       84.35       84.11       83.87       83.61       83.35       83.07       82.78    
        82.47       82.15       81.81       81.45       81.07       80.67       80.24       79.78       79.29       78.76    
        78.19       77.59       76.98       76.42       75.99       75.83       75.81       75.83       75.83       75.81    
        75.75       75.65       75.52       75.36       75.17       74.95       74.71       74.45       74.17       73.88    
        73.56       73.23       72.88       72.51       72.13       71.73       71.32       70.90       70.46       70.00    
  23    85.00       84.79       84.57       84.34       84.11       83.86       83.61       83.34       83.06       82.76    
        82.46       82.13       81.79       81.42       81.03       80.62       80.17       79.69       79.17       78.60    
        77.97       77.26       76.50       75.72       75.12       75.13       75.32       75.50       75.61       75.65    
        75.64       75.57       75.46       75.31       75.13       74.92       74.69       74.43       74.16       73.86    
        73.55       73.22       72.87       72.50       72.12       71.73       71.32       70.89       70.45       70.00    
  24    85.00       84.79       84.57       84.34       84.11       83.86       83.60       83.33       83.05       82.76    
        82.45       82.12       81.77       81.40       81.01       80.59       80.13       79.64       79.10       78.49    
        77.80       76.98       76.01       74.82       73.62       74.23       74.83       75.22       75.44       75.54    
        75.56       75.51       75.42       75.28       75.11       74.90       74.67       74.42       74.15       73.85    
        73.54       73.21       72.86       72.50       72.12       71.73       71.32       70.89       70.45       70.00    
  25    85.00       84.79       84.57       84.34       84.11       83.86       83.60       83.33       83.05       82.75    
        82.44       82.11       81.77       81.40       81.00       80.58       80.12       79.62       79.07       78.45    
        77.73       76.85       75.70       73.92       70.33       73.33       74.52       75.09       75.37       75.50    
        75.53       75.50       75.40       75.27       75.10       74.90       74.67       74.42       74.14       73.85    
        73.54       73.21       72.86       72.50       72.12       71.73       71.32       70.89       70.45       70.00    
  26    85.00       84.79       84.57       84.34       84.11       83.86       83.60       83.33       83.05       82.76    
        82.45       82.12       81.77       81.40       81.01       80.59       80.14       79.64       79.10       78.49    
        77.80       76.99       76.01       74.82       73.63       74.24       74.83       75.22       75.44       75.55    
        75.56       75.52       75.42       75.28       75.11       74.90       74.68       74.42       74.15       73.85    
        73.54       73.21       72.86       72.50       72.12       71.73       71.32       70.89       70.45       70.00    
  27    85.00       84.79       84.57       84.34       84.11       83.86       83.61       83.34       83.06       82.77    
        82.46       82.13       81.79       81.42       81.04       80.62       80.18       79.70       79.18       78.60    
        77.97       77.27       76.50       75.72       75.13       75.13       75.32       75.50       75.61       75.66    
        75.64       75.57       75.46       75.31       75.13       74.93       74.69       74.44       74.16       73.86    
        73.55       73.22       72.87       72.51       72.13       71.73       71.32       70.89       70.45       70.00    
  28    85.00       84.79       84.57       84.35       84.11       83.87       83.62       83.35       83.07       82.78    
        82.48       82.15       81.81       81.46       81.08       80.67       80.24       79.78       79.29       78.76    
        78.20       77.60       76.99       76.42       76.00       75.83       75.81       75.83       75.84       75.82    
        75.76       75.66       75.53       75.37       75.17       74.96       74.72       74.46       74.18       73.88    
        73.56       73.23       72.88       72.51       72.13       71.73       71.32       70.90       70.46       70.00    
  29    85.00       84.79       84.58       84.35       84.12       83.88       83.63       83.36       83.09       82.80    
        82.50       82.18       81.85       81.50       81.13       80.74       80.33       79.89       79.43       78.94    
        78.44       77.92       77.42       76.96       76.60       76.37       76.24       76.16       76.08       76.00    
        75.90       75.77       75.61       75.43       75.23       75.00       74.76       74.49       74.20       73.90    
        73.58       73.24       72.89       72.52       72.14       71.74       71.33       70.90       70.46       70.00    
  30    85.00       84.79       84.58       84.36       84.13       83.89       83.64       83.38       83.11       82.82    
        82.53       82.22       81.89       81.55       81.19       80.81       80.42       80.01       79.58       79.13    
        78.68       78.22       77.78       77.39       77.05       76.80       76.61       76.46       76.32       76.19    
        76.04       75.89       75.71       75.51       75.29       75.05       74.80       74.52       74.23       73.92    
        73.60       73.26       72.90       72.53       72.15       71.75       71.33       70.90       70.46       70.00    
  31    85.00       84.80       84.58       84.37       84.14       83.90       83.65       83.40       83.13       82.85    
        82.56       82.25       81.94       81.60       81.26       80.90       80.52       80.13       79.73       79.31    
        78.90       78.49       78.10       77.73       77.41       77.14       76.92       76.72       76.55       76.37    
        76.20       76.01       75.81       75.59       75.36       75.11       74.85       74.56       74.27       73.95    
        73.62       73.28       72.92       72.55       72.16       71.76       71.34       70.91       70.46       70.00    
  32    85.00       84.80       84.59       84.37       84.15       83.91       83.67       83.42       83.15       82.88    
        82.59       82.30       81.99       81.66       81.33       80.98       80.62       80.25       79.87       79.49    
        79.10       78.72       78.36       78.02       77.71       77.43       77.19       76.96       76.75       76.55    
        76.34       76.13       75.91       75.68       75.43       75.17       74.90       74.61       74.30       73.98    
        73.65       73.30       72.94       72.56       72.17       71.77       71.35       70.91       70.46       70.00    
  33    85.00       84.80       84.59       84.38       84.16       83.93       83.69       83.44       83.18       82.91    
        82.63       82.34       82.04       81.73       81.40       81.07       80.72       80.37       80.01       79.65    
        79.29       78.93       78.59       78.26       77.96       77.68       77.41       77.17       76.94       76.71    
        76.48       76.25       76.01       75.77       75.51       75.24       74.95       74.65       74.34       74.02    
        73.68       73.33       72.96       72.58       72.18       71.78       71.35       70.92       70.47       70.00    
  34    85.00       84.80       84.60       84.39       84.17       83.94       83.71       83.46       83.21       82.94    
        82.67       82.39       82.09       81.79       81.47       81.15       80.82       80.48       80.14       79.80    
        79.46       79.12       78.79       78.47       78.17       77.88       77.61       77.36       77.11       76.86    
        76.62       76.37       76.11       75.85       75.58       75.30       75.01       74.70       74.38       74.05    
        73.71       73.35       72.98       72.60       72.20       71.79       71.36       70.92       70.47       70.00    
  35    85.00       84.81       84.61       84.40       84.18       83.96       83.73       83.49       83.24       82.98    
        82.71       82.43       82.14       81.85       81.55       81.23       80.92       80.59       80.26       79.93    
        79.60       79.28       78.96       78.65       78.35       78.06       77.79       77.52       77.26       77.00    
        76.74       76.48       76.21       75.94       75.65       75.36       75.06       74.75       74.42       74.09    
        73.74       73.38       73.00       72.61       72.21       71.80       71.37       70.93       70.47       70.00    
  36    85.00       84.81       84.61       84.41       84.19       83.97       83.75       83.51       83.26       83.01    
        82.75       82.48       82.20       81.91       81.61       81.31       81.00       80.69       80.37       80.06    
        79.74       79.42       79.11       78.81       78.51       78.22       77.94       77.66       77.39       77.12    
        76.85       76.58       76.30       76.02       75.72       75.42       75.11       74.79       74.46       74.12    
        73.77       73.40       73.02       72.63       72.23       71.81       71.38       70.93       70.47       70.00    
  37    85.00       84.81       84.62       84.42       84.21       83.99       83.76       83.53       83.29       83.04    
        82.78       82.52       82.25       81.97       81.68       81.38       81.09       80.78       80.47       80.17    
        79.86       79.55       79.24       78.94       78.65       78.36       78.07       77.79       77.51       77.23    
        76.95       76.67       76.38       76.09       75.79       75.48       75.17       74.84       74.50       74.16    
        73.80       73.43       73.04       72.65       72.24       71.82       71.39       70.94       70.48       70.00    
  38    85.00       84.82       84.62       84.42       84.22       84.00       83.78       83.55       83.32       83.07    
        82.82       82.56       82.29       82.02       81.74       81.45       81.16       80.86       80.57       80.26    
        79.96       79.66       79.36       79.06       78.77       78.48       78.19       77.90       77.62       77.33    
        77.04       76.75       76.46       76.16       75.85       75.54       75.22       74.88       74.54       74.19    
        73.83       73.45       73.06       72.67       72.25       71.83       71.39       70.94       70.48       70.00    
  39    85.00       84.82       84.63       84.43       84.23       84.02       83.80       83.57       83.34       83.10    
        82.85       82.60       82.34       82.07       81.79       81.51       81.23       80.94       80.65       80.35    
        80.06       79.76       79.46       79.17       78.88       78.58       78.29       78.00       77.71       77.42    
        77.13       76.83       76.53       76.22       75.91       75.59       75.26       74.92       74.58       74.22    
        73.85       73.47       73.08       72.68       72.27       71.84       71.40       70.95       70.48       70.00    
  40    85.00       84.82       84.63       84.44       84.24       84.03       83.82       83.59       83.37       83.13    
        82.89       82.63       82.38       82.11       81.85       81.57       81.29       81.01       80.72       80.43    
        80.14       79.85       79.56       79.26       78.97       78.68       78.38       78.09       77.80       77.50    
        77.20       76.90       76.59       76.28       75.96       75.64       75.30       74.96       74.61       74.25    
        73.88       73.50       73.10       72.70       72.28       71.85       71.41       70.95       70.48       70.00    
  41    85.00       84.82       84.64       84.45       84.25       84.04       83.83       83.61       83.39       83.15    
        82.91       82.67       82.42       82.16       81.89       81.62       81.35       81.07       80.79       80.50    
        80.21       79.92       79.63       79.34       79.05       78.76       78.46       78.17       77.87       77.57    
        77.27       76.96       76.65       76.33       76.01       75.68       75.34       75.00       74.64       74.28    
        73.90       73.52       73.12       72.71       72.29       71.86       71.42       70.96       70.49       70.00    
  42    85.00       84.83       84.64       84.45       84.26       84.06       83.85       83.63       83.41       83.18    
        82.94       82.70       82.45       82.19       81.93       81.67       81.40       81.12       80.84       80.56    
        80.28       79.99       79.70       79.41       79.12       78.83       78.53       78.24       77.94       77.63    
        77.33       77.02       76.70       76.38       76.05       75.72       75.38       75.03       74.67       74.30    
        73.92       73.54       73.14       72.73       72.30       71.87       71.42       70.96       70.49       70.00    
  43    85.00       84.83       84.65       84.46       84.27       84.07       83.86       83.65       83.43       83.20    
        82.97       82.73       82.48       82.23       81.97       81.71       81.44       81.17       80.89       80.62    
        80.33       80.05       79.76       79.47       79.18       78.89       78.59       78.29       77.99       77.69    
        77.38       77.07       76.75       76.42       76.09       75.76       75.41       75.06       74.70       74.33    
        73.94       73.55       73.15       72.74       72.32       71.88       71.43       70.97       70.49       70.00    
  44    85.00       84.83       84.65       84.47       84.28       84.08       83.87       83.66       83.44       83.22    
        82.99       82.75       82.51       82.26       82.00       81.74       81.48       81.21       80.94       80.66    
        80.38       80.10       79.81       79.53       79.23       78.94       78.64       78.34       78.04       77.73    
        77.42       77.11       76.79       76.46       76.13       75.79       75.44       75.08       74.72       74.35    
        73.96       73.57       73.17       72.75       72.32       71.89       71.43       70.97       70.49       70.00    
  45    85.00       84.83       84.65       84.47       84.28       84.09       83.88       83.67       83.46       83.23    
        83.00       82.77       82.53       82.28       82.03       81.77       81.51       81.25       80.97       80.70    
        80.42       80.14       79.86       79.57       79.28       78.98       78.69       78.39       78.08       77.77    
        77.46       77.14       76.82       76.49       76.15       75.81       75.46       75.10       74.74       74.36    
        73.98       73.58       73.18       72.76       72.33       71.89       71.44       70.97       70.49       70.00    
  46    85.00       84.83       84.66       84.48       84.29       84.09       83.89       83.68       83.47       83.25    
        83.02       82.79       82.55       82.30       82.05       81.80       81.54       81.27       81.00       80.73    
        80.46       80.17       79.89       79.60       79.31       79.02       78.72       78.42       78.11       77.81    
        77.49       77.17       76.85       76.52       76.18       75.83       75.48       75.12       74.75       74.38    
        73.99       73.59       73.19       72.77       72.34       71.90       71.44       70.98       70.50       70.00    
  47    85.00       84.83       84.66       84.48       84.29       84.10       83.90       83.69       83.48       83.26    
        83.03       82.80       82.56       82.32       82.07       81.82       81.56       81.30       81.03       80.76    
        80.48       80.20       79.92       79.63       79.34       79.05       78.75       78.45       78.14       77.83    
        77.52       77.19       76.87       76.54       76.20       75.85       75.50       75.14       74.77       74.39    
        74.00       73.60       73.19       72.78       72.34       71.90       71.45       70.98       70.50       70.00    
  48    85.00       84.83       84.66       84.48       84.30       84.10       83.90       83.70       83.48       83.27    
        83.04       82.81       82.57       82.33       82.08       81.83       81.57       81.31       81.05       80.78    
        80.50       80.22       79.94       79.65       79.36       79.07       78.77       78.47       78.16       77.85    
        77.53       77.21       76.88       76.55       76.21       75.86       75.51       75.15       74.78       74.40    
        74.01       73.61       73.20       72.78       72.35       71.91       71.45       70.98       70.50       70.00    
  49    85.00       84.83       84.66       84.48       84.30       84.11       83.91       83.70       83.49       83.27    
        83.05       82.82       82.58       82.34       82.09       81.84       81.59       81.32       81.06       80.79    
        80.51       80.23       79.95       79.67       79.38       79.08       78.78       78.48       78.17       77.86    
        77.55       77.22       76.90       76.56       76.22       75.87       75.52       75.15       74.78       74.40    
        74.01       73.61       73.20       72.78       72.35       71.91       71.45       70.98       70.50       70.00    
  50    85.00       84.83       84.66       84.48       84.30       84.11       83.91       83.70       83.49       83.27    
        83.05       82.82       82.59       82.34       82.10       81.85       81.59       81.33       81.06       80.79    
        80.52       80.24       79.96       79.67       79.38       79.09       78.79       78.49       78.18       77.87    
        77.55       77.23       76.90       76.57       76.23       75.88       75.52       75.16       74.79       74.41    
        74.02       73.62       73.21       72.79       72.35       71.91       71.45       70.98       70.50       70.00    
1
              HEAD IN LAYER   3 AT END OF TIME STEP   1 IN STRESS PERIOD    1
  ---------------------------------------------------------------------------

            1           2           3           4           5           6           7           8           9          10
           11          12          13          14          15          16          17          18          19          20
           21          22          23          24          25          26          27          28          29          30
           31          32          33          34          35          36          37          38          39          40
           41          42          43          44          45          46          47          48          49          50
 ........................................................................................................................
   1    85.00       84.74       84.47       84.20       83.94       83.67       83.39       83.12       82.84       82.56    
        82.28       82.00       81.71       81.42       81.13       80.84       80.54       80.24       79.95       79.65    
        79.35       79.05       78.75       78.45       78.15       77.85       77.55       77.26       76.95       76.65    
        76.35       76.05       75.74       75.43       75.12       74.81       74.49       74.17       73.84       73.51    
        73.18       72.84       72.50       72.15       71.80       71.44       71.09       70.73       70.36       70.00    
   2    85.00       84.73       84.47       84.20       83.93       83.66       83.39       83.12       82.84       82.56    
        82.28       81.99       81.70       81.41       81.12       80.83       80.53       80.24       79.94       79.64    
        79.34       79.04       78.74       78.44       78.14       77.84       77.54       77.24       76.94       76.64    
        76.34       76.04       75.73       75.42       75.11       74.80       74.48       74.16       73.84       73.51    
        73.17       72.84       72.49       72.15       71.80       71.44       71.08       70.72       70.36       70.00    
   3    85.00       84.73       84.47       84.20       83.93       83.66       83.39       83.11       82.83       82.55    
        82.27       81.98       81.69       81.40       81.11       80.81       80.51       80.22       79.92       79.62    
        79.32       79.02       78.72       78.42       78.12       77.82       77.52       77.22       76.92       76.62    
        76.32       76.02       75.71       75.41       75.10       74.79       74.47       74.15       73.83       73.50    
        73.17       72.83       72.49       72.14       71.79       71.44       71.08       70.72       70.36       70.00    
   4    85.00       84.73       84.46       84.20       83.92       83.65       83.38       83.10       82.82       82.54    
        82.25       81.96       81.67       81.38       81.08       80.79       80.49       80.19       79.89       79.58    
        79.28       78.98       78.68       78.38       78.08       77.78       77.48       77.18       76.89       76.59    
        76.29       75.99       75.69       75.38       75.08       74.76       74.45       74.13       73.81       73.48    
        73.15       72.82       72.48       72.13       71.79       71.43       71.08       70.72       70.36       70.00    
   5    85.00       84.73       84.46       84.19       83.92       83.64       83.37       83.09       82.80       82.52    
        82.23       81.94       81.65       81.35       81.05       80.75       80.45       80.15       79.84       79.54    
        79.24       78.93       78.63       78.33       78.03       77.73       77.43       77.14       76.84       76.54    
        76.25       75.95       75.65       75.35       75.04       74.74       74.42       74.11       73.79       73.47    
        73.14       72.80       72.47       72.12       71.78       71.43       71.07       70.72       70.36       70.00    
   6    85.00       84.73       84.46       84.18       83.91       83.63       83.35       83.07       82.78       82.50    
        82.21       81.91       81.61       81.31       81.01       80.71       80.40       80.10       79.79       79.48    
        79.18       78.87       78.57       78.27       77.97       77.67       77.37       77.08       76.78       76.49    
        76.19       75.90       75.60       75.30       75.00       74.70       74.39       74.08       73.76       73.44    
        73.12       72.79       72.45       72.11       71.77       71.42       71.07       70.71       70.36       70.00    
   7    85.00       84.73       84.45       84.18       83.90       83.62       83.34       83.05       82.76       82.47    
        82.18       81.88       81.58       81.27       80.97       80.66       80.35       80.04       79.72       79.41    
        79.10       78.80       78.49       78.19       77.89       77.59       77.29       77.00       76.71       76.42    
        76.13       75.84       75.55       75.25       74.96       74.66       74.35       74.05       73.73       73.42    
        73.09       72.77       72.43       72.10       71.76       71.41       71.06       70.71       70.35       70.00    
   8    85.00       84.72       84.45       84.17       83.89       83.60       83.32       83.03       82.74       82.44    
        82.14       81.84       81.53       81.22       80.91       80.60       80.28       79.96       79.65       79.33    
        79.02       78.71       78.40       78.09       77.79       77.49       77.20       76.91       76.62       76.34    
        76.05       75.76       75.48       75.19       74.90       74.61       74.31       74.00       73.70       73.38    
        73.07       72.74       72.41       72.08       71.74       71.40       71.05       70.70       70.35       70.00    
   9    85.00       84.72       84.44       84.16       83.87       83.59       83.30       83.00       82.71       82.40    
        82.10       81.79       81.48       81.16       80.85       80.52       80.20       79.88       79.56       79.24    
        78.92       78.60       78.29       77.98       77.68       77.38       77.09       76.80       76.52       76.24    
[...]
        72.52       72.29       72.03       71.77       71.49       71.21       70.91       70.61       70.31       70.00    
  23    85.00       84.67       84.34       84.00       83.66       83.31       82.95       82.58       82.19       81.79    
        81.37       80.92       80.45       79.95       79.41       78.83       78.20       77.50       76.73       75.86    
        74.88       73.77       72.53       71.27       70.36       70.67       71.33       71.97       72.48       72.86    
        73.13       73.30       73.39       73.42       73.39       73.32       73.22       73.08       72.91       72.72    
        72.50       72.27       72.02       71.76       71.48       71.20       70.91       70.61       70.31       70.00    
  24    85.00       84.67       84.33       84.00       83.65       83.30       82.94       82.57       82.18       81.77    
        81.35       80.90       80.42       79.92       79.37       78.77       78.12       77.40       76.58       75.65    
        74.55       73.22       71.56       69.49       67.39       68.89       70.36       71.42       72.15       72.65    
        72.98       73.19       73.31       73.36       73.35       73.29       73.19       73.06       72.89       72.70    
        72.49       72.26       72.01       71.75       71.48       71.20       70.90       70.61       70.30       70.00    
  25    85.00       84.67       84.33       84.00       83.65       83.30       82.94       82.56       82.18       81.77    
        81.34       80.89       80.42       79.90       79.35       78.75       78.10       77.36       76.53       75.57    
        74.42       72.97       70.96       67.69       60.75       67.09       69.76       71.17       72.02       72.57    
        72.93       73.16       73.29       73.34       73.33       73.28       73.18       73.05       72.89       72.70    
        72.49       72.26       72.01       71.75       71.48       71.20       70.90       70.61       70.30       70.00    
  26    85.00       84.67       84.33       84.00       83.65       83.30       82.94       82.57       82.18       81.78    
        81.35       80.90       80.43       79.92       79.37       78.78       78.12       77.40       76.59       75.65    
        74.55       73.22       71.56       69.49       67.39       68.89       70.36       71.42       72.15       72.65    
        72.98       73.19       73.31       73.36       73.35       73.29       73.19       73.06       72.89       72.70    
        72.49       72.26       72.02       71.75       71.48       71.20       70.91       70.61       70.30       70.00    
  27    85.00       84.67       84.34       84.00       83.66       83.31       82.95       82.58       82.19       81.79    
        81.37       80.93       80.46       79.95       79.42       78.83       78.20       77.51       76.73       75.87    
        74.89       73.77       72.53       71.27       70.37       70.67       71.33       71.97       72.49       72.87    
        73.13       73.30       73.39       73.42       73.40       73.33       73.22       73.08       72.91       72.72    
        72.51       72.27       72.02       71.76       71.49       71.20       70.91       70.61       70.31       70.00    
  28    85.00       84.67       84.34       84.01       83.67       83.32       82.96       82.59       82.21       81.82    
        81.40       80.96       80.50       80.01       79.49       78.93       78.32       77.66       76.95       76.17    
        75.32       74.41       73.48       72.64       72.09       72.04       72.28       72.61       72.92       73.17    
        73.35       73.46       73.51       73.51       73.47       73.38       73.27       73.12       72.94       72.74    
        72.53       72.29       72.04       71.77       71.50       71.21       70.91       70.61       70.31       70.00    
  29    85.00       84.67       84.35       84.01       83.68       83.33       82.98       82.62       82.24       81.85    
        81.44       81.01       80.56       80.08       79.58       79.04       78.47       77.86       77.20       76.51    
        75.78       75.03       74.31       73.68       73.25       73.08       73.11       73.23       73.38       73.51    
        73.60       73.65       73.66       73.63       73.56       73.46       73.33       73.17       72.98       72.78    
        72.55       72.31       72.06       71.79       71.51       71.22       70.92       70.62       70.31       70.00    
  30    85.00       84.68       84.35       84.02       83.69       83.35       83.00       82.64       82.27       81.89    
        81.49       81.07       80.63       80.17       79.69       79.18       78.64       78.07       77.48       76.86    
        76.22       75.60       75.01       74.50       74.12       73.90       73.81       73.80       73.82       73.86    
        73.87       73.87       73.83       73.77       73.67       73.55       73.40       73.23       73.03       72.82    
        72.59       72.34       72.08       71.81       71.52       71.23       70.93       70.62       70.31       70.00    
  31    85.00       84.68       84.36       84.03       83.70       83.37       83.03       82.67       82.31       81.93    
        81.54       81.14       80.71       80.27       79.81       79.32       78.82       78.29       77.75       77.20    
        76.64       76.10       75.59       75.15       74.80       74.55       74.39       74.30       74.24       74.20    
        74.15       74.09       74.01       73.91       73.79       73.65       73.48       73.29       73.09       72.86    
        72.63       72.37       72.10       71.83       71.54       71.24       70.94       70.63       70.31       70.00    
  32    85.00       84.68       84.37       84.05       83.72       83.39       83.05       82.71       82.35       81.98    
        81.60       81.21       80.80       80.37       79.93       79.48       79.00       78.51       78.02       77.51    
        77.02       76.53       76.09       75.69       75.35       75.09       74.89       74.74       74.62       74.51    
        74.42       74.31       74.20       74.06       73.92       73.75       73.57       73.37       73.15       72.91    
        72.67       72.41       72.13       71.85       71.56       71.26       70.95       70.63       70.32       70.00    
  33    85.00       84.69       84.38       84.06       83.74       83.41       83.08       82.74       82.39       82.03    
        81.66       81.28       80.89       80.48       80.06       79.63       79.18       78.73       78.27       77.81    
        77.35       76.92       76.51       76.14       75.81       75.54       75.31       75.12       74.95       74.81    
        74.67       74.52       74.38       74.22       74.04       73.86       73.66       73.44       73.21       72.97    
        72.71       72.44       72.16       71.87       71.58       71.27       70.96       70.64       70.32       70.00    
  34    85.00       84.69       84.38       84.07       83.76       83.44       83.11       82.78       82.44       82.09    
        81.73       81.36       80.98       80.59       80.19       79.77       79.35       78.93       78.50       78.07    
        77.65       77.25       76.87       76.51       76.20       75.91       75.67       75.45       75.25       75.07    
        74.90       74.72       74.55       74.36       74.17       73.97       73.75       73.52       73.28       73.02    
        72.76       72.48       72.20       71.90       71.60       71.29       70.97       70.65       70.33       70.00    
  35    85.00       84.70       84.39       84.09       83.78       83.46       83.14       82.82       82.48       82.14    
        81.79       81.43       81.07       80.69       80.31       79.91       79.52       79.11       78.71       78.31    
        77.92       77.54       77.18       76.84       76.52       76.24       75.98       75.74       75.52       75.31    
        75.11       74.91       74.71       74.51       74.29       74.07       73.84       73.60       73.34       73.08    
        72.81       72.52       72.23       71.93       71.62       71.30       70.98       70.66       70.33       70.00    
  36    85.00       84.70       84.40       84.10       83.80       83.49       83.17       82.85       82.53       82.20    
        81.86       81.51       81.15       80.79       80.42       80.05       79.67       79.29       78.90       78.53    
        78.15       77.79       77.44       77.12       76.81       76.52       76.25       75.99       75.76       75.53    
        75.30       75.08       74.86       74.64       74.41       74.17       73.93       73.67       73.41       73.13    
        72.85       72.56       72.26       71.95       71.64       71.32       71.00       70.67       70.33       70.00    
  37    85.00       84.71       84.41       84.12       83.82       83.51       83.20       82.89       82.57       82.25    
        81.92       81.58       81.24       80.89       80.53       80.17       79.81       79.44       79.08       78.72    
        78.36       78.01       77.68       77.36       77.05       76.76       76.48       76.22       75.96       75.72    
        75.48       75.24       75.00       74.76       74.52       74.27       74.01       73.74       73.47       73.19    
        72.90       72.60       72.29       71.98       71.66       71.34       71.01       70.67       70.34       70.00    
  38    85.00       84.71       84.42       84.13       83.83       83.54       83.23       82.93       82.62       82.30    
        81.98       81.65       81.31       80.98       80.63       80.29       79.94       79.58       79.23       78.89    
        78.54       78.21       77.88       77.56       77.26       76.96       76.68       76.41       76.15       75.89    
        75.64       75.38       75.13       74.88       74.62       74.36       74.09       73.81       73.53       73.24    
        72.94       72.64       72.33       72.01       71.68       71.35       71.02       70.68       70.34       70.00    
  39    85.00       84.72       84.43       84.14       83.85       83.56       83.26       82.96       82.66       82.35    
        82.03       81.71       81.39       81.06       80.73       80.39       80.05       79.71       79.37       79.04    
        78.70       78.38       78.06       77.74       77.44       77.15       76.86       76.58       76.31       76.04    
        75.78       75.51       75.25       74.98       74.72       74.44       74.16       73.88       73.59       73.29    
        72.99       72.67       72.36       72.03       71.70       71.37       71.03       70.69       70.35       70.00    
  40    85.00       84.72       84.44       84.15       83.87       83.58       83.29       82.99       82.70       82.39    
        82.08       81.77       81.45       81.13       80.81       80.48       80.16       79.83       79.50       79.17    
        78.85       78.53       78.21       77.90       77.60       77.30       77.01       76.73       76.45       76.17    
        75.90       75.63       75.35       75.08       74.80       74.52       74.23       73.94       73.64       73.34    
        73.03       72.71       72.39       72.06       71.72       71.39       71.04       70.70       70.35       70.00    
  41    85.00       84.72       84.45       84.17       83.89       83.60       83.31       83.02       82.73       82.43    
        82.13       81.83       81.52       81.20       80.89       80.57       80.25       79.93       79.61       79.29    
        78.97       78.65       78.34       78.04       77.73       77.44       77.15       76.86       76.57       76.29    
        76.01       75.73       75.45       75.16       74.88       74.59       74.29       73.99       73.69       73.38    
        73.06       72.74       72.41       72.08       71.74       71.40       71.05       70.70       70.35       70.00    
  42    85.00       84.73       84.45       84.18       83.90       83.62       83.34       83.05       82.76       82.47    
        82.17       81.87       81.57       81.26       80.96       80.64       80.33       80.02       79.70       79.39    
        79.08       78.77       78.46       78.15       77.85       77.55       77.26       76.97       76.68       76.39    
        76.11       75.82       75.53       75.24       74.95       74.65       74.35       74.04       73.73       73.42    
        73.10       72.77       72.44       72.10       71.76       71.41       71.06       70.71       70.36       70.00    
  43    85.00       84.73       84.46       84.19       83.91       83.64       83.36       83.08       82.79       82.50    
        82.21       81.92       81.62       81.32       81.02       80.71       80.40       80.09       79.78       79.48    
        79.17       78.86       78.56       78.25       77.95       77.65       77.36       77.07       76.77       76.48    
        76.19       75.90       75.60       75.31       75.01       74.71       74.40       74.09       73.77       73.45    
        73.13       72.80       72.46       72.12       71.77       71.42       71.07       70.72       70.36       70.00    
  44    85.00       84.73       84.47       84.20       83.93       83.65       83.38       83.10       82.82       82.53    
        82.25       81.96       81.66       81.37       81.07       80.77       80.46       80.16       79.86       79.55    
        79.25       78.94       78.64       78.34       78.04       77.74       77.44       77.15       76.85       76.56    
        76.26       75.96       75.67       75.36       75.06       74.75       74.44       74.13       73.81       73.48    
        73.15       72.82       72.48       72.14       71.79       71.44       71.08       70.72       70.36       70.00    
  45    85.00       84.74       84.47       84.20       83.94       83.67       83.39       83.12       82.84       82.56    
        82.28       81.99       81.70       81.41       81.11       80.81       80.52       80.22       79.91       79.61    
        79.31       79.01       78.71       78.41       78.11       77.81       77.51       77.21       76.92       76.62    
        76.32       76.02       75.72       75.41       75.11       74.79       74.48       74.16       73.84       73.51    
        73.18       72.84       72.50       72.15       71.80       71.44       71.09       70.73       70.36       70.00    
  46    85.00       84.74       84.47       84.21       83.94       83.68       83.41       83.13       82.86       82.58    
        82.30       82.02       81.73       81.44       81.15       80.85       80.56       80.26       79.96       79.66    
        79.37       79.07       78.77       78.47       78.17       77.87       77.57       77.27       76.97       76.67    
        76.37       76.07       75.76       75.45       75.14       74.83       74.51       74.19       73.86       73.53    
        73.20       72.86       72.51       72.16       71.81       71.45       71.09       70.73       70.37       70.00    
  47    85.00       84.74       84.48       84.22       83.95       83.69       83.42       83.15       82.87       82.60    
        82.32       82.04       81.75       81.47       81.18       80.89       80.59       80.30       80.00       79.70    
        79.41       79.11       78.81       78.51       78.21       77.91       77.61       77.31       77.01       76.71    
        76.41       76.10       75.80       75.49       75.17       74.86       74.54       74.21       73.88       73.55    
        73.21       72.87       72.52       72.17       71.82       71.46       71.10       70.73       70.37       70.00    
  48    85.00       84.74       84.48       84.22       83.96       83.69       83.43       83.16       82.88       82.61    
        82.33       82.05       81.77       81.49       81.20       80.91       80.62       80.32       80.03       79.73    
        79.44       79.14       78.84       78.54       78.25       77.95       77.65       77.35       77.04       76.74    
        76.44       76.13       75.82       75.51       75.19       74.88       74.55       74.23       73.90       73.56    
        73.22       72.88       72.53       72.18       71.82       71.46       71.10       70.74       70.37       70.00    
  49    85.00       84.74       84.48       84.22       83.96       83.70       83.43       83.16       82.89       82.62    
        82.34       82.06       81.78       81.50       81.21       80.92       80.63       80.34       80.05       79.75    
        79.46       79.16       78.86       78.57       78.27       77.97       77.67       77.37       77.06       76.76    
        76.46       76.15       75.84       75.52       75.21       74.89       74.57       74.24       73.91       73.57    
        73.23       72.89       72.54       72.18       71.83       71.47       71.10       70.74       70.37       70.00    
  50    85.00       84.74       84.48       84.22       83.96       83.70       83.43       83.17       82.90       82.62    
        82.35       82.07       81.79       81.51       81.22       80.93       80.64       80.35       80.06       79.76    
        79.47       79.17       78.88       78.58       78.28       77.98       77.68       77.38       77.07       76.77    
        76.46       76.16       75.85       75.53       75.22       74.90       74.57       74.24       73.91       73.58    
        73.24       72.89       72.54       72.19       71.83       71.47       71.10       70.74       70.37       70.00    

 HEAD WILL BE SAVED ON UNIT   51 AT END OF TIME STEP    1, STRESS PERIOD    1
1
  VOLUMETRIC BUDGET FOR ENTIRE MODEL AT END OF TIME STEP    1, STRESS PERIOD   1
  ------------------------------------------------------------------------------

     CUMULATIVE VOLUMES      L**3       RATES FOR THIS TIME STEP      L**3/T
     ------------------                 ------------------------

           IN:                                      IN:
           ---                                      ---
             STORAGE =           0.0000               STORAGE =           0.0000
       CONSTANT HEAD =         429.9787         CONSTANT HEAD =         429.9787
               WELLS =           0.0000                 WELLS =           0.0000
            RECHARGE =        1200.0000              RECHARGE =        1200.0000

            TOTAL IN =        1629.9788              TOTAL IN =        1629.9788

          OUT:                                     OUT:
          ----                                     ----
             STORAGE =           0.0000               STORAGE =           0.0000
       CONSTANT HEAD =        1129.9786         CONSTANT HEAD =        1129.9786
               WELLS =         500.0000                 WELLS =         500.0000
            RECHARGE =           0.0000              RECHARGE =           0.0000

           TOTAL OUT =        1629.9786             TOTAL OUT =        1629.9786

            IN - OUT =       1.2207E-04              IN - OUT =       1.2207E-04

 PERCENT DISCREPANCY =           0.00     PERCENT DISCREPANCY =           0.00






         TIME SUMMARY AT END OF TIME STEP    1 IN STRESS PERIOD    1
                    SECONDS     MINUTES      HOURS       DAYS        YEARS
                    -----------------------------------------------------------
   TIME STEP LENGTH  86400.      1440.0      24.000      1.0000     2.73785E-03
 STRESS PERIOD TIME  86400.      1440.0      24.000      1.0000     2.73785E-03
         TOTAL TIME  86400.      1440.0      24.000      1.0000     2.73785E-03
1

 Run end date and time (yyyy/mm/dd hh:mm:ss): 2026/02/26  2:39:10
 Elapsed run time:  0.066 Seconds

